data_ABAVOP_clean
_audit_creation_date              2014-07-02
_audit_creation_method            'Materials Studio'
_symmetry_space_group_name_H-M    'P1'
_symmetry_Int_Tables_number       1
_symmetry_cell_setting            triclinic
loop_
_symmetry_equiv_pos_as_xyz
  x,y,z
_cell_length_a                    9.7780
_cell_length_b                    10.2660
_cell_length_c                    13.2120
_cell_angle_alpha                 90.0000
_cell_angle_beta                  90.0000
_cell_angle_gamma                 104.1830
loop_
_atom_site_label
_atom_site_type_symbol
_atom_site_fract_x
_atom_site_fract_y
_atom_site_fract_z
_atom_site_U_iso_or_equiv
_atom_site_adp_type
_atom_site_occupancy
Co1    Co    0.00000   0.00000   0.50000   0.01267  Uiso   1.00
Co2    Co    0.50000   0.50000   0.00000   0.01267  Uiso   1.00
Co3    Co    0.00000   0.50000   0.00000   0.01267  Uiso   1.00
Co4    Co    0.50000   0.00000   0.50000   0.01267  Uiso   1.00
H1     H     0.14590   0.79250   0.06950   0.01267  Uiso   1.00
H2     H     0.22080   0.91830   0.21090   0.01267  Uiso   1.00
H3     H     0.06680   0.59020   0.38040   0.01267  Uiso   1.00
H4     H     0.00490   0.47080   0.23290   0.01267  Uiso   1.00
H5     H     0.27150   0.14360   0.39220   0.01267  Uiso   1.00
H6     H     0.35210   0.26700   0.24810   0.01267  Uiso   1.00
H7     H     0.94760   0.20640   0.15880   0.01267  Uiso   1.00
H8     H     0.88000   0.08860   0.30510   0.01267  Uiso   1.00
H9     H     0.35410   0.70750   0.56950   0.01267  Uiso   1.00
H10    H     0.27920   0.58170   0.71090   0.01267  Uiso   1.00
H11    H     0.43320   0.90980   0.88040   0.01267  Uiso   1.00
H12    H     0.49510   0.02920   0.73290   0.01267  Uiso   1.00
H13    H     0.22850   0.35640   0.89220   0.01267  Uiso   1.00
H14    H     0.14790   0.23300   0.74810   0.01267  Uiso   1.00
H15    H     0.55240   0.29360   0.65880   0.01267  Uiso   1.00
H16    H     0.62000   0.41140   0.80510   0.01267  Uiso   1.00
H17    H     0.85410   0.20750   0.93050   0.01267  Uiso   1.00
H18    H     0.77920   0.08170   0.78910   0.01267  Uiso   1.00
H19    H     0.93320   0.40980   0.61960   0.01267  Uiso   1.00
H20    H     0.99510   0.52920   0.76710   0.01267  Uiso   1.00
H21    H     0.72850   0.85640   0.60780   0.01267  Uiso   1.00
H22    H     0.64790   0.73300   0.75190   0.01267  Uiso   1.00
H23    H     0.05240   0.79360   0.84120   0.01267  Uiso   1.00
H24    H     0.12000   0.91140   0.69490   0.01267  Uiso   1.00
H25    H     0.64590   0.29250   0.43050   0.01267  Uiso   1.00
H26    H     0.72080   0.41830   0.28910   0.01267  Uiso   1.00
H27    H     0.56680   0.09020   0.11960   0.01267  Uiso   1.00
H28    H     0.50490   0.97080   0.26710   0.01267  Uiso   1.00
H29    H     0.77150   0.64360   0.10780   0.01267  Uiso   1.00
H30    H     0.85210   0.76700   0.25190   0.01267  Uiso   1.00
H31    H     0.44760   0.70640   0.34120   0.01267  Uiso   1.00
H32    H     0.38000   0.58860   0.19490   0.01267  Uiso   1.00
C1     C     0.13130   0.75010   0.13300   0.01267  Uiso   1.00
C2     C     0.17580   0.82660   0.21740   0.01267  Uiso   1.00
C3     C     0.15400   0.76790   0.31230   0.01267  Uiso   1.00
C4     C     0.08640   0.63340   0.31750   0.01267  Uiso   1.00
C5     C     0.04790   0.56310   0.22830   0.01267  Uiso   1.00
C6     C     0.20740   0.84670   0.40720   0.01267  Uiso   1.00
C7     C     0.20550   0.15780   0.34440   0.01267  Uiso   1.00
C8     C     0.25490   0.23200   0.25820   0.01267  Uiso   1.00
C9     C     0.15840   0.25340   0.18780   0.01267  Uiso   1.00
C10    C     0.01620   0.19630   0.20610   0.01267  Uiso   1.00
C11    C     0.97670   0.12520   0.29360   0.01267  Uiso   1.00
C12    C     0.20930   0.33860   0.09490   0.01267  Uiso   1.00
C13    C     0.36870   0.74990   0.63300   0.01267  Uiso   1.00
C14    C     0.32420   0.67340   0.71740   0.01267  Uiso   1.00
C15    C     0.34600   0.73210   0.81230   0.01267  Uiso   1.00
C16    C     0.41360   0.86660   0.81750   0.01267  Uiso   1.00
C17    C     0.45210   0.93690   0.72830   0.01267  Uiso   1.00
C18    C     0.29260   0.65330   0.90720   0.01267  Uiso   1.00
C19    C     0.29450   0.34220   0.84440   0.01267  Uiso   1.00
C20    C     0.24510   0.26800   0.75820   0.01267  Uiso   1.00
C21    C     0.34160   0.24660   0.68780   0.01267  Uiso   1.00
C22    C     0.48380   0.30370   0.70610   0.01267  Uiso   1.00
C23    C     0.52330   0.37480   0.79360   0.01267  Uiso   1.00
C24    C     0.29070   0.16140   0.59490   0.01267  Uiso   1.00
C25    C     0.86870   0.24990   0.86700   0.01267  Uiso   1.00
C26    C     0.82420   0.17340   0.78260   0.01267  Uiso   1.00
C27    C     0.84600   0.23210   0.68770   0.01267  Uiso   1.00
C28    C     0.91360   0.36660   0.68250   0.01267  Uiso   1.00
C29    C     0.95210   0.43690   0.77170   0.01267  Uiso   1.00
C30    C     0.79260   0.15330   0.59280   0.01267  Uiso   1.00
C31    C     0.79450   0.84220   0.65560   0.01267  Uiso   1.00
C32    C     0.74510   0.76800   0.74180   0.01267  Uiso   1.00
C33    C     0.84160   0.74660   0.81220   0.01267  Uiso   1.00
C34    C     0.98380   0.80370   0.79390   0.01267  Uiso   1.00
C35    C     0.02330   0.87480   0.70640   0.01267  Uiso   1.00
C36    C     0.79070   0.66140   0.90510   0.01267  Uiso   1.00
C37    C     0.63130   0.25010   0.36700   0.01267  Uiso   1.00
C38    C     0.67580   0.32660   0.28260   0.01267  Uiso   1.00
C39    C     0.65400   0.26790   0.18770   0.01267  Uiso   1.00
C40    C     0.58640   0.13340   0.18250   0.01267  Uiso   1.00
C41    C     0.54790   0.06310   0.27170   0.01267  Uiso   1.00
C42    C     0.70740   0.34670   0.09280   0.01267  Uiso   1.00
C43    C     0.70550   0.65780   0.15560   0.01267  Uiso   1.00
C44    C     0.75490   0.73200   0.24180   0.01267  Uiso   1.00
C45    C     0.65840   0.75340   0.31220   0.01267  Uiso   1.00
C46    C     0.51620   0.69630   0.29390   0.01267  Uiso   1.00
C47    C     0.47670   0.62520   0.20640   0.01267  Uiso   1.00
C48    C     0.70930   0.83860   0.40510   0.01267  Uiso   1.00
N1     N     0.06830   0.61870   0.13550   0.01267  Uiso   1.00
N2     N     0.06790   0.10540   0.36270   0.01267  Uiso   1.00
N3     N     0.43170   0.88130   0.63550   0.01267  Uiso   1.00
N4     N     0.43210   0.39460   0.86270   0.01267  Uiso   1.00
N5     N     0.93170   0.38130   0.86450   0.01267  Uiso   1.00
N6     N     0.93210   0.89460   0.63730   0.01267  Uiso   1.00
N7     N     0.56830   0.11870   0.36450   0.01267  Uiso   1.00
N8     N     0.56790   0.60540   0.13730   0.01267  Uiso   1.00
O1     O     0.33980   0.88660   0.41035   0.01267  Uiso   1.00
O2     O     0.12250   0.86180   0.47373   0.01267  Uiso   1.00
O3     O     0.33870   0.37470   0.08251   0.01267  Uiso   1.00
O4     O     0.11440   0.36390   0.03861   0.01267  Uiso   1.00
O5     O     0.16020   0.61340   0.91035   0.01267  Uiso   1.00
O6     O     0.37750   0.63820   0.97373   0.01267  Uiso   1.00
O7     O     0.16130   0.12530   0.58251   0.01267  Uiso   1.00
O8     O     0.38560   0.13610   0.53861   0.01267  Uiso   1.00
O9     O     0.66020   0.11340   0.58965   0.01267  Uiso   1.00
O10    O     0.87750   0.13820   0.52627   0.01267  Uiso   1.00
O11    O     0.66130   0.62530   0.91749   0.01267  Uiso   1.00
O12    O     0.88560   0.63610   0.96139   0.01267  Uiso   1.00
O13    O     0.83980   0.38660   0.08965   0.01267  Uiso   1.00
O14    O     0.62250   0.36180   0.02627   0.01267  Uiso   1.00
O15    O     0.83870   0.87470   0.41749   0.01267  Uiso   1.00
O16    O     0.61440   0.86390   0.46139   0.01267  Uiso   1.00
