data_ACMPCD_clean
_audit_creation_date              2014-07-02
_audit_creation_method            'Materials Studio'
_symmetry_space_group_name_H-M    'P1'
_symmetry_Int_Tables_number       1
_symmetry_cell_setting            triclinic
loop_
_symmetry_equiv_pos_as_xyz
  x,y,z
_cell_length_a                    5.3490
_cell_length_b                    15.9656
_cell_length_c                    19.8969
_cell_angle_alpha                 88.5799
_cell_angle_beta                  82.2750
_cell_angle_gamma                 80.3566
loop_
_atom_site_label
_atom_site_type_symbol
_atom_site_fract_x
_atom_site_fract_y
_atom_site_fract_z
_atom_site_U_iso_or_equiv
_atom_site_adp_type
_atom_site_occupancy
Cd1    Cd    0.68568   0.58354   0.04510   0.01267  Uiso   1.00
Cd2    Cd    0.62195   0.95417   0.57847   0.01267  Uiso   1.00
Cd3    Cd    0.31432   0.41646   0.95490   0.01267  Uiso   1.00
Cd4    Cd    0.15459   0.04583   0.42153   0.01267  Uiso   1.00
P1     P     0.24260   0.63350   0.95850   0.01267  Uiso   1.00
P2     P     0.76330   0.92980   0.40940   0.01267  Uiso   1.00
P3     P     0.83460   0.36650   0.04150   0.01267  Uiso   1.00
P4     P     0.10250   0.07020   0.59060   0.01267  Uiso   1.00
C1     C     0.92100   0.84000   0.66800   0.01267  Uiso   1.00
C2     C     0.81900   0.66100   0.16100   0.01267  Uiso   1.00
C3     C     0.62900   0.91800   0.74400   0.01267  Uiso   1.00
C4     C     0.49700   0.77000   0.14000   0.01267  Uiso   1.00
C5     C     0.77100   0.88400   0.80000   0.01267  Uiso   1.00
C6     C     0.57300   0.81900   0.19100   0.01267  Uiso   1.00
C7     C     0.96900   0.82600   0.78400   0.01267  Uiso   1.00
C8     C     0.74400   0.78700   0.22900   0.01267  Uiso   1.00
C9     C     0.29400   0.74300   0.69900   0.01267  Uiso   1.00
C10    C     0.09700   0.65600   0.25200   0.01267  Uiso   1.00
C11    C     0.24900   0.65500   0.68100   0.01267  Uiso   1.00
C12    C     0.93100   0.61300   0.31900   0.01267  Uiso   1.00
C13    C     0.26100   0.61700   0.74500   0.01267  Uiso   1.00
C14    C     0.93900   0.65800   0.36600   0.01267  Uiso   1.00
C15    C     0.52600   0.64900   0.77100   0.01267  Uiso   1.00
C16    C     0.15600   0.70600   0.35400   0.01267  Uiso   1.00
C17    C     0.53800   0.64400   0.84600   0.01267  Uiso   1.00
C18    C     0.10600   0.79700   0.39300   0.01267  Uiso   1.00
C19    C     0.42900   0.16000   0.33200   0.01267  Uiso   1.00
C20    C     0.64100   0.33900   0.83900   0.01267  Uiso   1.00
C21    C     0.29100   0.08200   0.25600   0.01267  Uiso   1.00
C22    C     0.40700   0.23000   0.86000   0.01267  Uiso   1.00
C23    C     0.45500   0.11600   0.20000   0.01267  Uiso   1.00
C24    C     0.58300   0.18100   0.80900   0.01267  Uiso   1.00
C25    C     0.57900   0.17400   0.21600   0.01267  Uiso   1.00
C26    C     0.76000   0.21300   0.77100   0.01267  Uiso   1.00
C27    C     0.73600   0.25700   0.30100   0.01267  Uiso   1.00
C28    C     0.00500   0.34400   0.74800   0.01267  Uiso   1.00
C29    C     0.58500   0.34500   0.31900   0.01267  Uiso   1.00
C30    C     0.86300   0.38700   0.68100   0.01267  Uiso   1.00
C31    C     0.62300   0.38300   0.25500   0.01267  Uiso   1.00
C32    C     0.96300   0.34200   0.63400   0.01267  Uiso   1.00
C33    C     0.94600   0.35100   0.22900   0.01267  Uiso   1.00
C34    C     0.21600   0.29400   0.64600   0.01267  Uiso   1.00
C35    C     0.02800   0.35600   0.15400   0.01267  Uiso   1.00
C36    C     0.29600   0.20300   0.60700   0.01267  Uiso   1.00
N1     N     0.05500   0.80700   0.71700   0.01267  Uiso   1.00
N2     N     0.88100   0.70400   0.21200   0.01267  Uiso   1.00
N3     N     0.71300   0.89400   0.68200   0.01267  Uiso   1.00
N4     N     0.63900   0.69500   0.12300   0.01267  Uiso   1.00
N5     N     0.40200   0.97500   0.75900   0.01267  Uiso   1.00
N6     N     0.31100   0.79800   0.10400   0.01267  Uiso   1.00
N7     N     0.57900   0.19300   0.28300   0.01267  Uiso   1.00
N8     N     0.79700   0.29600   0.78800   0.01267  Uiso   1.00
N9     N     0.28900   0.10600   0.31800   0.01267  Uiso   1.00
N10    N     0.45700   0.30500   0.87700   0.01267  Uiso   1.00
N11    N     0.13600   0.02500   0.24100   0.01267  Uiso   1.00
N12    N     0.21300   0.20200   0.89600   0.01267  Uiso   1.00
O1     O     0.00400   0.81600   0.61000   0.01267  Uiso   1.00
O2     O     0.93900   0.58800   0.14600   0.01267  Uiso   1.00
O3     O     0.44900   0.73500   0.75100   0.01267  Uiso   1.00
O4     O     0.17900   0.72100   0.28500   0.01267  Uiso   1.00
O5     O     0.45300   0.61000   0.63600   0.01267  Uiso   1.00
O6     O     0.11700   0.53700   0.32500   0.01267  Uiso   1.00
O7     O     0.30700   0.52400   0.75000   0.01267  Uiso   1.00
O8     O     0.91100   0.61200   0.42800   0.01267  Uiso   1.00
O9     O     0.29300   0.65800   0.88200   0.01267  Uiso   1.00
O10    O     0.86400   0.83800   0.38000   0.01267  Uiso   1.00
O11    O     0.40900   0.54900   0.96900   0.01267  Uiso   1.00
O12    O     0.85400   0.93400   0.47800   0.01267  Uiso   1.00
O13    O     0.33800   0.69600   0.99800   0.01267  Uiso   1.00
O14    O     0.87700   0.99200   0.36400   0.01267  Uiso   1.00
O15    O     0.96400   0.63100   0.96900   0.01267  Uiso   1.00
O16    O     0.47200   0.93600   0.41400   0.01267  Uiso   1.00
O17    O     0.43000   0.18400   0.39000   0.01267  Uiso   1.00
O18    O     0.67300   0.41200   0.85400   0.01267  Uiso   1.00
O19    O     0.93500   0.26500   0.24900   0.01267  Uiso   1.00
O20    O     0.18500   0.27900   0.71500   0.01267  Uiso   1.00
O21    O     0.69900   0.39000   0.36400   0.01267  Uiso   1.00
O22    O     0.97900   0.46300   0.67500   0.01267  Uiso   1.00
O23    O     0.58100   0.47600   0.25000   0.01267  Uiso   1.00
O24    O     0.95100   0.38800   0.57200   0.01267  Uiso   1.00
O25    O     0.83300   0.34200   0.11800   0.01267  Uiso   1.00
O26    O     0.08200   0.16200   0.62000   0.01267  Uiso   1.00
O27    O     0.92700   0.45100   0.03100   0.01267  Uiso   1.00
O28    O     0.26600   0.06600   0.52200   0.01267  Uiso   1.00
O29    O     0.03200   0.30400   0.00200   0.01267  Uiso   1.00
O30    O     0.23300   0.00800   0.63600   0.01267  Uiso   1.00
O31    O     0.56400   0.36900   0.03100   0.01267  Uiso   1.00
O32    O     0.82200   0.06400   0.58600   0.01267  Uiso   1.00
