data_ACOLUB_clean
_audit_creation_date              2014-07-02
_audit_creation_method            'Materials Studio'
_symmetry_space_group_name_H-M    'P1'
_symmetry_Int_Tables_number       1
_symmetry_cell_setting            triclinic
loop_
_symmetry_equiv_pos_as_xyz
  x,y,z
_cell_length_a                    16.4830
_cell_length_b                    18.0126
_cell_length_c                    18.0126
_cell_angle_alpha                 111.4310
_cell_angle_beta                  107.3100
_cell_angle_gamma                 72.6899
loop_
_atom_site_label
_atom_site_type_symbol
_atom_site_fract_x
_atom_site_fract_y
_atom_site_fract_z
_atom_site_U_iso_or_equiv
_atom_site_adp_type
_atom_site_occupancy
Cd1    Cd    0.45077   0.18779   0.64347   0.01267  Uiso   1.00
Cd2    Cd    0.04923   0.64347   0.18779   0.01267  Uiso   1.00
Cd3    Cd    0.54923   0.81221   0.35653   0.01267  Uiso   1.00
Cd4    Cd    0.95077   0.35653   0.81221   0.01267  Uiso   1.00
Cd5    Cd    0.50000   0.00000   0.50000   0.01267  Uiso   1.00
Cd6    Cd    0.00000   0.50000   0.00000   0.01267  Uiso   1.00
H1     H     0.15850   0.88210   0.88790   0.01267  Uiso   1.00
H2     H     0.18270   0.93790   0.85130   0.01267  Uiso   1.00
H3     H     0.08100   0.85090   0.64210   0.01267  Uiso   1.00
H4     H     0.18060   0.83390   0.68330   0.01267  Uiso   1.00
H5     H     0.02540   0.97830   0.78850   0.01267  Uiso   1.00
H6     H     0.00530   0.92350   0.82870   0.01267  Uiso   1.00
H7     H     0.14570   0.73670   0.73870   0.01267  Uiso   1.00
H8     H     0.04840   0.76090   0.69370   0.01267  Uiso   1.00
H9     H     0.21980   0.86280   0.59740   0.01267  Uiso   1.00
H10    H     0.30820   0.90820   0.55080   0.01267  Uiso   1.00
H11    H     0.23690   0.13310   0.69410   0.01267  Uiso   1.00
H12    H     0.14700   0.08920   0.73600   0.01267  Uiso   1.00
H13    H     0.89360   0.04410   0.81290   0.01267  Uiso   1.00
H14    H     0.75450   0.12330   0.80110   0.01267  Uiso   1.00
H15    H     0.68390   0.95590   0.59390   0.01267  Uiso   1.00
H16    H     0.82170   0.87940   0.60300   0.01267  Uiso   1.00
H17    H     0.99460   0.75920   0.90500   0.01267  Uiso   1.00
H18    H     0.95480   0.64940   0.90780   0.01267  Uiso   1.00
H19    H     0.03420   0.51850   0.70310   0.01267  Uiso   1.00
H20    H     0.07950   0.63080   0.70540   0.01267  Uiso   1.00
H21    H     0.51810   0.33210   0.79790   0.01267  Uiso   1.00
H22    H     0.30780   0.38800   0.88600   0.01267  Uiso   1.00
H23    H     0.29250   0.27840   0.75720   0.01267  Uiso   1.00
H24    H     0.52080   0.47500   0.87240   0.01267  Uiso   1.00
H25    H     0.41540   0.42860   0.01760   0.01267  Uiso   1.00
H26    H     0.34150   0.88790   0.88210   0.01267  Uiso   1.00
H27    H     0.31730   0.85130   0.93790   0.01267  Uiso   1.00
H28    H     0.41900   0.64210   0.85090   0.01267  Uiso   1.00
H29    H     0.31940   0.68330   0.83390   0.01267  Uiso   1.00
H30    H     0.47460   0.78850   0.97830   0.01267  Uiso   1.00
H31    H     0.49470   0.82870   0.92350   0.01267  Uiso   1.00
H32    H     0.35430   0.73870   0.73670   0.01267  Uiso   1.00
H33    H     0.45160   0.69370   0.76090   0.01267  Uiso   1.00
H34    H     0.28020   0.59740   0.86280   0.01267  Uiso   1.00
H35    H     0.19180   0.55080   0.90820   0.01267  Uiso   1.00
H36    H     0.26310   0.69410   0.13310   0.01267  Uiso   1.00
H37    H     0.35300   0.73600   0.08920   0.01267  Uiso   1.00
H38    H     0.60640   0.81290   0.04410   0.01267  Uiso   1.00
H39    H     0.74550   0.80110   0.12330   0.01267  Uiso   1.00
H40    H     0.81610   0.59390   0.95590   0.01267  Uiso   1.00
H41    H     0.67830   0.60300   0.87940   0.01267  Uiso   1.00
H42    H     0.50540   0.90500   0.75920   0.01267  Uiso   1.00
H43    H     0.54520   0.90780   0.64940   0.01267  Uiso   1.00
H44    H     0.46580   0.70310   0.51850   0.01267  Uiso   1.00
H45    H     0.42050   0.70540   0.63080   0.01267  Uiso   1.00
H46    H     0.98190   0.79790   0.33210   0.01267  Uiso   1.00
H47    H     0.19220   0.88600   0.38800   0.01267  Uiso   1.00
H48    H     0.20750   0.75720   0.27840   0.01267  Uiso   1.00
H49    H     0.97920   0.87240   0.47500   0.01267  Uiso   1.00
H50    H     0.08460   0.01760   0.42860   0.01267  Uiso   1.00
H51    H     0.84150   0.11790   0.11210   0.01267  Uiso   1.00
H52    H     0.81730   0.06210   0.14870   0.01267  Uiso   1.00
H53    H     0.91900   0.14910   0.35790   0.01267  Uiso   1.00
H54    H     0.81940   0.16610   0.31670   0.01267  Uiso   1.00
H55    H     0.97460   0.02170   0.21150   0.01267  Uiso   1.00
H56    H     0.99470   0.07650   0.17130   0.01267  Uiso   1.00
H57    H     0.85430   0.26330   0.26130   0.01267  Uiso   1.00
H58    H     0.95160   0.23910   0.30630   0.01267  Uiso   1.00
H59    H     0.78020   0.13720   0.40260   0.01267  Uiso   1.00
H60    H     0.69180   0.09180   0.44920   0.01267  Uiso   1.00
H61    H     0.76310   0.86690   0.30590   0.01267  Uiso   1.00
H62    H     0.85300   0.91080   0.26400   0.01267  Uiso   1.00
H63    H     0.10640   0.95590   0.18710   0.01267  Uiso   1.00
H64    H     0.24550   0.87670   0.19890   0.01267  Uiso   1.00
H65    H     0.31610   0.04410   0.40610   0.01267  Uiso   1.00
H66    H     0.17830   0.12060   0.39700   0.01267  Uiso   1.00
H67    H     0.00540   0.24080   0.09500   0.01267  Uiso   1.00
H68    H     0.04520   0.35060   0.09220   0.01267  Uiso   1.00
H69    H     0.96580   0.48150   0.29690   0.01267  Uiso   1.00
H70    H     0.92050   0.36920   0.29460   0.01267  Uiso   1.00
H71    H     0.48190   0.66790   0.20210   0.01267  Uiso   1.00
H72    H     0.69220   0.61200   0.11400   0.01267  Uiso   1.00
H73    H     0.70750   0.72160   0.24280   0.01267  Uiso   1.00
H74    H     0.47920   0.52500   0.12760   0.01267  Uiso   1.00
H75    H     0.58460   0.57140   0.98240   0.01267  Uiso   1.00
H76    H     0.65850   0.11210   0.11790   0.01267  Uiso   1.00
H77    H     0.68270   0.14870   0.06210   0.01267  Uiso   1.00
H78    H     0.58100   0.35790   0.14910   0.01267  Uiso   1.00
H79    H     0.68060   0.31670   0.16610   0.01267  Uiso   1.00
H80    H     0.52540   0.21150   0.02170   0.01267  Uiso   1.00
H81    H     0.50530   0.17130   0.07650   0.01267  Uiso   1.00
H82    H     0.64570   0.26130   0.26330   0.01267  Uiso   1.00
H83    H     0.54840   0.30630   0.23910   0.01267  Uiso   1.00
H84    H     0.71980   0.40260   0.13720   0.01267  Uiso   1.00
H85    H     0.80820   0.44920   0.09180   0.01267  Uiso   1.00
H86    H     0.73690   0.30590   0.86690   0.01267  Uiso   1.00
H87    H     0.64700   0.26400   0.91080   0.01267  Uiso   1.00
H88    H     0.39360   0.18710   0.95590   0.01267  Uiso   1.00
H89    H     0.25450   0.19890   0.87670   0.01267  Uiso   1.00
H90    H     0.18390   0.40610   0.04410   0.01267  Uiso   1.00
H91    H     0.32170   0.39700   0.12060   0.01267  Uiso   1.00
H92    H     0.49460   0.09500   0.24080   0.01267  Uiso   1.00
H93    H     0.45480   0.09220   0.35060   0.01267  Uiso   1.00
H94    H     0.53420   0.29690   0.48150   0.01267  Uiso   1.00
H95    H     0.57950   0.29460   0.36920   0.01267  Uiso   1.00
H96    H     0.01810   0.20210   0.66790   0.01267  Uiso   1.00
H97    H     0.80780   0.11400   0.61200   0.01267  Uiso   1.00
H98    H     0.79250   0.24280   0.72160   0.01267  Uiso   1.00
H99    H     0.02080   0.12760   0.52500   0.01267  Uiso   1.00
H100   H     0.91540   0.98240   0.57140   0.01267  Uiso   1.00
C1     C     0.10150   0.86390   0.76530   0.01267  Uiso   1.00
C2     C     0.17370   0.88370   0.84050   0.01267  Uiso   1.00
C3     C     0.12420   0.86840   0.69100   0.01267  Uiso   1.00
C4     C     0.01880   0.92380   0.78000   0.01267  Uiso   1.00
C5     C     0.09080   0.77510   0.74430   0.01267  Uiso   1.00
C6     C     0.17830   0.97160   0.67440   0.01267  Uiso   1.00
C7     C     0.22400   0.91730   0.61750   0.01267  Uiso   1.00
C8     C     0.27690   0.94450   0.58970   0.01267  Uiso   1.00
C9     C     0.28260   0.02570   0.62050   0.01267  Uiso   1.00
C10    C     0.23420   0.07820   0.67440   0.01267  Uiso   1.00
C11    C     0.18140   0.05180   0.70020   0.01267  Uiso   1.00
C12    C     0.34550   0.05310   0.59670   0.01267  Uiso   1.00
C13    C     0.87160   0.95350   0.71110   0.01267  Uiso   1.00
C14    C     0.85070   0.02620   0.76780   0.01267  Uiso   1.00
C15    C     0.76770   0.07440   0.76080   0.01267  Uiso   1.00
C16    C     0.70560   0.04890   0.69330   0.01267  Uiso   1.00
C17    C     0.72710   0.97510   0.63790   0.01267  Uiso   1.00
C18    C     0.80870   0.92800   0.64380   0.01267  Uiso   1.00
C19    C     0.61740   0.10060   0.68260   0.01267  Uiso   1.00
C20    C     0.03910   0.70660   0.80480   0.01267  Uiso   1.00
C21    C     0.00360   0.71020   0.86360   0.01267  Uiso   1.00
C22    C     0.97960   0.64440   0.86560   0.01267  Uiso   1.00
C23    C     0.99180   0.57170   0.80610   0.01267  Uiso   1.00
C24    C     0.02690   0.56690   0.74550   0.01267  Uiso   1.00
C25    C     0.05280   0.63530   0.74610   0.01267  Uiso   1.00
C26    C     0.96970   0.49880   0.80940   0.01267  Uiso   1.00
C27    C     0.46370   0.33270   0.80350   0.01267  Uiso   1.00
C28    C     0.34800   0.36390   0.85270   0.01267  Uiso   1.00
C29    C     0.33980   0.30350   0.78190   0.01267  Uiso   1.00
C30    C     0.46280   0.44480   0.93500   0.01267  Uiso   1.00
C31    C     0.51230   0.48540   0.92440   0.01267  Uiso   1.00
C32    C     0.44930   0.45750   0.01050   0.01267  Uiso   1.00
C33    C     0.39850   0.76530   0.86390   0.01267  Uiso   1.00
C34    C     0.32630   0.84050   0.88370   0.01267  Uiso   1.00
C35    C     0.37580   0.69100   0.86840   0.01267  Uiso   1.00
C36    C     0.48120   0.78000   0.92380   0.01267  Uiso   1.00
C37    C     0.40920   0.74430   0.77510   0.01267  Uiso   1.00
C38    C     0.32170   0.67440   0.97160   0.01267  Uiso   1.00
C39    C     0.27600   0.61750   0.91730   0.01267  Uiso   1.00
C40    C     0.22310   0.58970   0.94450   0.01267  Uiso   1.00
C41    C     0.21740   0.62050   0.02570   0.01267  Uiso   1.00
C42    C     0.26580   0.67440   0.07820   0.01267  Uiso   1.00
C43    C     0.31860   0.70020   0.05180   0.01267  Uiso   1.00
C44    C     0.15450   0.59670   0.05310   0.01267  Uiso   1.00
C45    C     0.62840   0.71110   0.95350   0.01267  Uiso   1.00
C46    C     0.64930   0.76780   0.02620   0.01267  Uiso   1.00
C47    C     0.73230   0.76080   0.07440   0.01267  Uiso   1.00
C48    C     0.79440   0.69330   0.04890   0.01267  Uiso   1.00
C49    C     0.77290   0.63790   0.97510   0.01267  Uiso   1.00
C50    C     0.69130   0.64380   0.92800   0.01267  Uiso   1.00
C51    C     0.88260   0.68260   0.10060   0.01267  Uiso   1.00
C52    C     0.46090   0.80480   0.70660   0.01267  Uiso   1.00
C53    C     0.49640   0.86360   0.71020   0.01267  Uiso   1.00
C54    C     0.52040   0.86560   0.64440   0.01267  Uiso   1.00
C55    C     0.50820   0.80610   0.57170   0.01267  Uiso   1.00
C56    C     0.47310   0.74550   0.56690   0.01267  Uiso   1.00
C57    C     0.44720   0.74610   0.63530   0.01267  Uiso   1.00
C58    C     0.53030   0.80940   0.49880   0.01267  Uiso   1.00
C59    C     0.03630   0.80350   0.33270   0.01267  Uiso   1.00
C60    C     0.15200   0.85270   0.36390   0.01267  Uiso   1.00
C61    C     0.16020   0.78190   0.30350   0.01267  Uiso   1.00
C62    C     0.03720   0.93500   0.44480   0.01267  Uiso   1.00
C63    C     0.98770   0.92440   0.48540   0.01267  Uiso   1.00
C64    C     0.05070   0.01050   0.45750   0.01267  Uiso   1.00
C65    C     0.89850   0.13610   0.23470   0.01267  Uiso   1.00
C66    C     0.82630   0.11630   0.15950   0.01267  Uiso   1.00
C67    C     0.87580   0.13160   0.30900   0.01267  Uiso   1.00
C68    C     0.98120   0.07620   0.22000   0.01267  Uiso   1.00
C69    C     0.90920   0.22490   0.25570   0.01267  Uiso   1.00
C70    C     0.82170   0.02840   0.32560   0.01267  Uiso   1.00
C71    C     0.77600   0.08270   0.38250   0.01267  Uiso   1.00
C72    C     0.72310   0.05550   0.41030   0.01267  Uiso   1.00
C73    C     0.71740   0.97430   0.37950   0.01267  Uiso   1.00
C74    C     0.76580   0.92180   0.32560   0.01267  Uiso   1.00
C75    C     0.81860   0.94820   0.29980   0.01267  Uiso   1.00
C76    C     0.65450   0.94690   0.40330   0.01267  Uiso   1.00
C77    C     0.12840   0.04650   0.28890   0.01267  Uiso   1.00
C78    C     0.14930   0.97380   0.23220   0.01267  Uiso   1.00
C79    C     0.23230   0.92560   0.23920   0.01267  Uiso   1.00
C80    C     0.29440   0.95110   0.30670   0.01267  Uiso   1.00
C81    C     0.27290   0.02490   0.36210   0.01267  Uiso   1.00
C82    C     0.19130   0.07200   0.35620   0.01267  Uiso   1.00
C83    C     0.38260   0.89940   0.31740   0.01267  Uiso   1.00
C84    C     0.96090   0.29340   0.19520   0.01267  Uiso   1.00
C85    C     0.99640   0.28980   0.13640   0.01267  Uiso   1.00
C86    C     0.02040   0.35560   0.13440   0.01267  Uiso   1.00
C87    C     0.00820   0.42830   0.19390   0.01267  Uiso   1.00
C88    C     0.97310   0.43310   0.25450   0.01267  Uiso   1.00
C89    C     0.94720   0.36470   0.25390   0.01267  Uiso   1.00
C90    C     0.03030   0.50120   0.19060   0.01267  Uiso   1.00
C91    C     0.53630   0.66730   0.19650   0.01267  Uiso   1.00
C92    C     0.65200   0.63610   0.14730   0.01267  Uiso   1.00
C93    C     0.66020   0.69650   0.21810   0.01267  Uiso   1.00
C94    C     0.53720   0.55520   0.06500   0.01267  Uiso   1.00
C95    C     0.48770   0.51460   0.07560   0.01267  Uiso   1.00
C96    C     0.55070   0.54250   0.98950   0.01267  Uiso   1.00
C97    C     0.60150   0.23470   0.13610   0.01267  Uiso   1.00
C98    C     0.67370   0.15950   0.11630   0.01267  Uiso   1.00
C99    C     0.62420   0.30900   0.13160   0.01267  Uiso   1.00
C100   C     0.51880   0.22000   0.07620   0.01267  Uiso   1.00
C101   C     0.59080   0.25570   0.22490   0.01267  Uiso   1.00
C102   C     0.67830   0.32560   0.02840   0.01267  Uiso   1.00
C103   C     0.72400   0.38250   0.08270   0.01267  Uiso   1.00
C104   C     0.77690   0.41030   0.05550   0.01267  Uiso   1.00
C105   C     0.78260   0.37950   0.97430   0.01267  Uiso   1.00
C106   C     0.73420   0.32560   0.92180   0.01267  Uiso   1.00
C107   C     0.68140   0.29980   0.94820   0.01267  Uiso   1.00
C108   C     0.84550   0.40330   0.94690   0.01267  Uiso   1.00
C109   C     0.37160   0.28890   0.04650   0.01267  Uiso   1.00
C110   C     0.35070   0.23220   0.97380   0.01267  Uiso   1.00
C111   C     0.26770   0.23920   0.92560   0.01267  Uiso   1.00
C112   C     0.20560   0.30670   0.95110   0.01267  Uiso   1.00
C113   C     0.22710   0.36210   0.02490   0.01267  Uiso   1.00
C114   C     0.30870   0.35620   0.07200   0.01267  Uiso   1.00
C115   C     0.11740   0.31740   0.89940   0.01267  Uiso   1.00
C116   C     0.53910   0.19520   0.29340   0.01267  Uiso   1.00
C117   C     0.50360   0.13640   0.28980   0.01267  Uiso   1.00
C118   C     0.47960   0.13440   0.35560   0.01267  Uiso   1.00
C119   C     0.49180   0.19390   0.42830   0.01267  Uiso   1.00
C120   C     0.52690   0.25450   0.43310   0.01267  Uiso   1.00
C121   C     0.55280   0.25390   0.36470   0.01267  Uiso   1.00
C122   C     0.46970   0.19060   0.50120   0.01267  Uiso   1.00
C123   C     0.96370   0.19650   0.66730   0.01267  Uiso   1.00
C124   C     0.84800   0.14730   0.63610   0.01267  Uiso   1.00
C125   C     0.83980   0.21810   0.69650   0.01267  Uiso   1.00
C126   C     0.96280   0.06500   0.55520   0.01267  Uiso   1.00
C127   C     0.01230   0.07560   0.51460   0.01267  Uiso   1.00
C128   C     0.94930   0.98950   0.54250   0.01267  Uiso   1.00
N1     N     0.41350   0.28530   0.75230   0.01267  Uiso   1.00
N2     N     0.42640   0.38370   0.86690   0.01267  Uiso   1.00
N3     N     0.08650   0.75230   0.28530   0.01267  Uiso   1.00
N4     N     0.07360   0.86690   0.38370   0.01267  Uiso   1.00
N5     N     0.58650   0.71470   0.24770   0.01267  Uiso   1.00
N6     N     0.57360   0.61630   0.13310   0.01267  Uiso   1.00
N7     N     0.91350   0.24770   0.71470   0.01267  Uiso   1.00
N8     N     0.92640   0.13310   0.61630   0.01267  Uiso   1.00
O1     O     0.12550   0.95200   0.70740   0.01267  Uiso   1.00
O2     O     0.95150   0.90380   0.71340   0.01267  Uiso   1.00
O3     O     0.06160   0.77410   0.81110   0.01267  Uiso   1.00
O4     O     0.35040   0.12700   0.63060   0.01267  Uiso   1.00
O5     O     0.38810   0.00200   0.54580   0.01267  Uiso   1.00
O6     O     0.60350   0.17270   0.72610   0.01267  Uiso   1.00
O7     O     0.55640   0.06910   0.63030   0.01267  Uiso   1.00
O8     O     0.93870   0.50690   0.86910   0.01267  Uiso   1.00
O9     O     0.98230   0.43370   0.75430   0.01267  Uiso   1.00
O10    O     0.37450   0.70740   0.95200   0.01267  Uiso   1.00
O11    O     0.54850   0.71340   0.90380   0.01267  Uiso   1.00
O12    O     0.43840   0.81110   0.77410   0.01267  Uiso   1.00
O13    O     0.14960   0.63060   0.12700   0.01267  Uiso   1.00
O14    O     0.11190   0.54580   0.00200   0.01267  Uiso   1.00
O15    O     0.89650   0.72610   0.17270   0.01267  Uiso   1.00
O16    O     0.94360   0.63030   0.06910   0.01267  Uiso   1.00
O17    O     0.56130   0.86910   0.50690   0.01267  Uiso   1.00
O18    O     0.51770   0.75430   0.43370   0.01267  Uiso   1.00
O19    O     0.87450   0.04800   0.29260   0.01267  Uiso   1.00
O20    O     0.04850   0.09620   0.28660   0.01267  Uiso   1.00
O21    O     0.93840   0.22590   0.18890   0.01267  Uiso   1.00
O22    O     0.64960   0.87300   0.36940   0.01267  Uiso   1.00
O23    O     0.61190   0.99800   0.45420   0.01267  Uiso   1.00
O24    O     0.39650   0.82730   0.27390   0.01267  Uiso   1.00
O25    O     0.44360   0.93090   0.36970   0.01267  Uiso   1.00
O26    O     0.06130   0.49310   0.13090   0.01267  Uiso   1.00
O27    O     0.01770   0.56630   0.24570   0.01267  Uiso   1.00
O28    O     0.62550   0.29260   0.04800   0.01267  Uiso   1.00
O29    O     0.45150   0.28660   0.09620   0.01267  Uiso   1.00
O30    O     0.56160   0.18890   0.22590   0.01267  Uiso   1.00
O31    O     0.85040   0.36940   0.87300   0.01267  Uiso   1.00
O32    O     0.88810   0.45420   0.99800   0.01267  Uiso   1.00
O33    O     0.10350   0.27390   0.82730   0.01267  Uiso   1.00
O34    O     0.05640   0.36970   0.93090   0.01267  Uiso   1.00
O35    O     0.43870   0.13090   0.49310   0.01267  Uiso   1.00
O36    O     0.48230   0.24570   0.56630   0.01267  Uiso   1.00
O37    O     0.25000   0.82430   0.82430   0.01267  Uiso   1.00
O38    O     0.75000   0.17570   0.17570   0.01267  Uiso   1.00
