data_ADABAK01_clean
_audit_creation_date              2014-07-02
_audit_creation_method            'Materials Studio'
_symmetry_space_group_name_H-M    'P1'
_symmetry_Int_Tables_number       1
_symmetry_cell_setting            triclinic
loop_
_symmetry_equiv_pos_as_xyz
  x,y,z
_cell_length_a                    9.2413
_cell_length_b                    9.2844
_cell_length_c                    14.0189
_cell_angle_alpha                 102.4040
_cell_angle_beta                  109.2450
_cell_angle_gamma                 90.0000
loop_
_atom_site_label
_atom_site_type_symbol
_atom_site_fract_x
_atom_site_fract_y
_atom_site_fract_z
_atom_site_U_iso_or_equiv
_atom_site_adp_type
_atom_site_occupancy
Cu1    Cu    0.02510   0.06440   0.37940   0.01267  Uiso   1.00
Cu2    Cu    0.64570   0.43560   0.62060   0.01267  Uiso   1.00
Cu3    Cu    0.97490   0.93560   0.62060   0.01267  Uiso   1.00
Cu4    Cu    0.35430   0.56440   0.37940   0.01267  Uiso   1.00
C1     C     0.08970   0.31140   0.30140   0.01267  Uiso   1.00
C2     C     0.23020   0.30960   0.39260   0.01267  Uiso   1.00
C3     C     0.82920   0.83640   0.20540   0.01267  Uiso   1.00
C4     C     0.71060   0.73580   0.13580   0.01267  Uiso   1.00
C5     C     0.56180   0.76690   0.13140   0.01267  Uiso   1.00
C6     C     0.53710   0.89420   0.19520   0.01267  Uiso   1.00
C7     C     0.66390   0.98840   0.26240   0.01267  Uiso   1.00
C8     C     0.42680   0.66263   0.05760   0.01267  Uiso   1.00
C9     C     0.78830   0.18860   0.69860   0.01267  Uiso   1.00
C10    C     0.83760   0.19040   0.60740   0.01267  Uiso   1.00
C11    C     0.62380   0.66360   0.79460   0.01267  Uiso   1.00
C12    C     0.57480   0.76420   0.86420   0.01267  Uiso   1.00
C13    C     0.43040   0.73310   0.86860   0.01267  Uiso   1.00
C14    C     0.34190   0.60580   0.80480   0.01267  Uiso   1.00
C15    C     0.40150   0.51160   0.73760   0.01267  Uiso   1.00
C16    C     0.36920   0.83737   0.94240   0.01267  Uiso   1.00
C17    C     0.91030   0.68860   0.69860   0.01267  Uiso   1.00
C18    C     0.76980   0.69040   0.60740   0.01267  Uiso   1.00
C19    C     0.17080   0.16360   0.79460   0.01267  Uiso   1.00
C20    C     0.28940   0.26420   0.86420   0.01267  Uiso   1.00
C21    C     0.43820   0.23310   0.86860   0.01267  Uiso   1.00
C22    C     0.46290   0.10580   0.80480   0.01267  Uiso   1.00
C23    C     0.33610   0.01160   0.73760   0.01267  Uiso   1.00
C24    C     0.57320   0.33737   0.94240   0.01267  Uiso   1.00
C25    C     0.21170   0.81140   0.30140   0.01267  Uiso   1.00
C26    C     0.16240   0.80960   0.39260   0.01267  Uiso   1.00
C27    C     0.37620   0.33640   0.20540   0.01267  Uiso   1.00
C28    C     0.42520   0.23580   0.13580   0.01267  Uiso   1.00
C29    C     0.56960   0.26690   0.13140   0.01267  Uiso   1.00
C30    C     0.65810   0.39420   0.19520   0.01267  Uiso   1.00
C31    C     0.59850   0.48840   0.26240   0.01267  Uiso   1.00
C32    C     0.63080   0.16263   0.05760   0.01267  Uiso   1.00
C33    C     0.30400   0.75000   0.00000   0.01267  Uiso   1.00
C34    C     0.69600   0.25000   1.00000   0.01267  Uiso   1.00
N1     N     0.22220   0.23740   0.46240   0.01267  Uiso   1.00
N2     N     0.36230   0.25460   0.53460   0.01267  Uiso   1.00
N3     N     0.45140   0.33680   0.50680   0.01267  Uiso   1.00
N4     N     0.37030   0.37260   0.41860   0.01267  Uiso   1.00
N5     N     0.80940   0.96040   0.26840   0.01267  Uiso   1.00
N6     N     0.75980   0.26260   0.53760   0.01267  Uiso   1.00
N7     N     0.82770   0.24540   0.46540   0.01267  Uiso   1.00
N8     N     0.94460   0.16320   0.49320   0.01267  Uiso   1.00
N9     N     0.95170   0.12740   0.58140   0.01267  Uiso   1.00
N10    N     0.54100   0.53960   0.73160   0.01267  Uiso   1.00
N11    N     0.77780   0.76260   0.53760   0.01267  Uiso   1.00
N12    N     0.63770   0.74540   0.46540   0.01267  Uiso   1.00
N13    N     0.54860   0.66320   0.49320   0.01267  Uiso   1.00
N14    N     0.62970   0.62740   0.58140   0.01267  Uiso   1.00
N15    N     0.19060   0.03960   0.73160   0.01267  Uiso   1.00
N16    N     0.24020   0.73740   0.46240   0.01267  Uiso   1.00
N17    N     0.17230   0.75460   0.53460   0.01267  Uiso   1.00
N18    N     0.05540   0.83680   0.50680   0.01267  Uiso   1.00
N19    N     0.04830   0.87260   0.41860   0.01267  Uiso   1.00
N20    N     0.45900   0.46040   0.26840   0.01267  Uiso   1.00
O1     O     0.09690   0.39480   0.24580   0.01267  Uiso   1.00
O2     O     0.97700   0.22400   0.29200   0.01267  Uiso   1.00
O3     O     0.85110   0.10520   0.75420   0.01267  Uiso   1.00
O4     O     0.68500   0.27600   0.70800   0.01267  Uiso   1.00
O5     O     0.90310   0.60520   0.75420   0.01267  Uiso   1.00
O6     O     0.02300   0.77600   0.70800   0.01267  Uiso   1.00
O7     O     0.14890   0.89480   0.24580   0.01267  Uiso   1.00
O8     O     0.31500   0.72400   0.29200   0.01267  Uiso   1.00
