data_AFITIT_clean
_audit_creation_date              2014-07-02
_audit_creation_method            'Materials Studio'
_symmetry_space_group_name_H-M    'P1'
_symmetry_Int_Tables_number       1
_symmetry_cell_setting            triclinic
loop_
_symmetry_equiv_pos_as_xyz
  x,y,z
_cell_length_a                    14.0334
_cell_length_b                    17.7321
_cell_length_c                    17.7321
_cell_angle_alpha                 104.1720
_cell_angle_beta                  92.1983
_cell_angle_gamma                 92.1983
loop_
_atom_site_label
_atom_site_type_symbol
_atom_site_fract_x
_atom_site_fract_y
_atom_site_fract_z
_atom_site_U_iso_or_equiv
_atom_site_adp_type
_atom_site_occupancy
Zn1    Zn    0.10478   0.08897   0.92127   0.01267  Uiso   1.00
Zn2    Zn    0.89522   0.07873   0.91103   0.01267  Uiso   1.00
H1     H     0.85160   0.32150   0.90370   0.01267  Uiso   1.00
H2     H     0.14110   0.33860   0.95940   0.01267  Uiso   1.00
H3     H     0.23550   0.45200   0.96120   0.01267  Uiso   1.00
H4     H     0.19380   0.50830   0.91130   0.01267  Uiso   1.00
H5     H     0.17960   0.52680   0.00300   0.01267  Uiso   1.00
H6     H     0.86310   0.45030   0.89010   0.01267  Uiso   1.00
H7     H     0.86040   0.69760   0.89700   0.01267  Uiso   1.00
H8     H     0.23170   0.75670   0.95190   0.01267  Uiso   1.00
H9     H     0.17760   0.69680   0.99200   0.01267  Uiso   1.00
H10    H     0.19720   0.67170   0.90110   0.01267  Uiso   1.00
H11    H     0.13480   0.85560   0.92520   0.01267  Uiso   1.00
H12    H     0.85410   0.82710   0.89390   0.01267  Uiso   1.00
H13    H     0.26230   0.11330   0.81870   0.01267  Uiso   1.00
H14    H     0.26860   0.05810   0.02270   0.01267  Uiso   1.00
H15    H     0.43260   0.05260   0.02240   0.01267  Uiso   1.00
H16    H     0.42430   0.10890   0.81550   0.01267  Uiso   1.00
H17    H     0.14840   0.09630   0.67850   0.01267  Uiso   1.00
H18    H     0.85890   0.04060   0.66140   0.01267  Uiso   1.00
H19    H     0.76450   0.03880   0.54800   0.01267  Uiso   1.00
H20    H     0.80620   0.08870   0.49170   0.01267  Uiso   1.00
H21    H     0.82040   0.99700   0.47320   0.01267  Uiso   1.00
H22    H     0.13690   0.10990   0.54970   0.01267  Uiso   1.00
H23    H     0.13960   0.10300   0.30240   0.01267  Uiso   1.00
H24    H     0.76830   0.04810   0.24330   0.01267  Uiso   1.00
H25    H     0.82240   0.00800   0.30320   0.01267  Uiso   1.00
H26    H     0.80280   0.09890   0.32830   0.01267  Uiso   1.00
H27    H     0.86520   0.07480   0.14440   0.01267  Uiso   1.00
H28    H     0.14590   0.10610   0.17290   0.01267  Uiso   1.00
H29    H     0.73770   0.18130   0.88670   0.01267  Uiso   1.00
H30    H     0.73140   0.97730   0.94190   0.01267  Uiso   1.00
H31    H     0.56740   0.97760   0.94740   0.01267  Uiso   1.00
H32    H     0.57570   0.18450   0.89110   0.01267  Uiso   1.00
C1     C     0.99580   0.23300   0.92960   0.01267  Uiso   1.00
C2     C     0.99920   0.31513   0.92787   0.01267  Uiso   1.00
C3     C     0.91120   0.35010   0.91090   0.01267  Uiso   1.00
C4     C     0.08520   0.36110   0.94470   0.01267  Uiso   1.00
C5     C     0.09040   0.43700   0.94040   0.01267  Uiso   1.00
C6     C     0.18290   0.48519   0.95521   0.01267  Uiso   1.00
C7     C     0.91820   0.42746   0.90574   0.01267  Uiso   1.00
C8     C     0.00220   0.47100   0.92260   0.01267  Uiso   1.00
C9     C     0.00730   0.55330   0.92150   0.01267  Uiso   1.00
C10    C     0.00860   0.61970   0.92130   0.01267  Uiso   1.00
C11    C     0.00340   0.70080   0.91740   0.01267  Uiso   1.00
C12    C     0.91730   0.72980   0.90380   0.01267  Uiso   1.00
C13    C     0.08870   0.74510   0.92590   0.01267  Uiso   1.00
C14    C     0.18170   0.71507   0.94433   0.01267  Uiso   1.00
C15    C     0.07860   0.82261   0.91919   0.01267  Uiso   1.00
C16    C     0.91400   0.80564   0.90016   0.01267  Uiso   1.00
C17    C     0.99790   0.85182   0.90558   0.01267  Uiso   1.00
C18    C     0.99290   0.93774   0.90606   0.01267  Uiso   1.00
C19    C     0.29720   0.10079   0.86061   0.01267  Uiso   1.00
C20    C     0.30110   0.06839   0.98001   0.01267  Uiso   1.00
C21    C     0.39810   0.06554   0.98046   0.01267  Uiso   1.00
C22    C     0.39350   0.09866   0.85894   0.01267  Uiso   1.00
C23    C     0.44680   0.08240   0.91740   0.01267  Uiso   1.00
C24    C     0.00420   0.07040   0.76700   0.01267  Uiso   1.00
C25    C     0.00080   0.07213   0.68487   0.01267  Uiso   1.00
C26    C     0.08880   0.08910   0.64990   0.01267  Uiso   1.00
C27    C     0.91480   0.05530   0.63890   0.01267  Uiso   1.00
C28    C     0.90960   0.05960   0.56300   0.01267  Uiso   1.00
C29    C     0.81710   0.04479   0.51481   0.01267  Uiso   1.00
C30    C     0.08180   0.09426   0.57254   0.01267  Uiso   1.00
C31    C     0.99780   0.07740   0.52900   0.01267  Uiso   1.00
C32    C     0.99270   0.07850   0.44670   0.01267  Uiso   1.00
C33    C     0.99140   0.07870   0.38030   0.01267  Uiso   1.00
C34    C     0.99660   0.08260   0.29920   0.01267  Uiso   1.00
C35    C     0.08270   0.09620   0.27020   0.01267  Uiso   1.00
C36    C     0.91130   0.07410   0.25490   0.01267  Uiso   1.00
C37    C     0.81830   0.05567   0.28493   0.01267  Uiso   1.00
C38    C     0.92140   0.08081   0.17739   0.01267  Uiso   1.00
C39    C     0.08600   0.09984   0.19436   0.01267  Uiso   1.00
C40    C     0.00210   0.09442   0.14818   0.01267  Uiso   1.00
C41    C     0.00710   0.09394   0.06226   0.01267  Uiso   1.00
C42    C     0.70280   0.13939   0.89921   0.01267  Uiso   1.00
C43    C     0.69890   0.01999   0.93161   0.01267  Uiso   1.00
C44    C     0.60190   0.01954   0.93446   0.01267  Uiso   1.00
C45    C     0.60650   0.14106   0.90134   0.01267  Uiso   1.00
C46    C     0.55320   0.08260   0.91760   0.01267  Uiso   1.00
N1     N     0.24920   0.08561   0.92041   0.01267  Uiso   1.00
N2     N     0.75080   0.07959   0.91439   0.01267  Uiso   1.00
O1     O     0.07010   0.97290   0.90210   0.01267  Uiso   1.00
O2     O     0.91030   0.96258   0.90482   0.01267  Uiso   1.00
O3     O     0.91630   0.19479   0.91841   0.01267  Uiso   1.00
O4     O     0.07620   0.20225   0.93965   0.01267  Uiso   1.00
O5     O     0.92990   0.09790   0.02710   0.01267  Uiso   1.00
O6     O     0.08970   0.09518   0.03742   0.01267  Uiso   1.00
O7     O     0.08370   0.08159   0.80521   0.01267  Uiso   1.00
O8     O     0.92380   0.06035   0.79775   0.01267  Uiso   1.00
Zn3    Zn    0.41925   0.28985   0.45720   0.01267  Uiso   1.00
Zn4    Zn    0.20921   0.27686   0.44576   0.01267  Uiso   1.00
H33    H     0.45980   0.28450   0.22030   0.01267  Uiso   1.00
H34    H     0.16610   0.25420   0.19280   0.01267  Uiso   1.00
H35    H     0.17630   0.26190   0.06470   0.01267  Uiso   1.00
H36    H     0.51580   0.34330   0.06790   0.01267  Uiso   1.00
H37    H     0.55470   0.28690   0.11890   0.01267  Uiso   1.00
H38    H     0.51000   0.25110   0.03250   0.01267  Uiso   1.00
H39    H     0.51420   0.31810   0.87890   0.01267  Uiso   1.00
H40    H     0.52850   0.38210   0.82990   0.01267  Uiso   1.00
H41    H     0.46690   0.40060   0.90580   0.01267  Uiso   1.00
H42    H     0.18530   0.24940   0.81480   0.01267  Uiso   1.00
H43    H     0.18020   0.25420   0.68560   0.01267  Uiso   1.00
H44    H     0.44290   0.35020   0.71140   0.01267  Uiso   1.00
H45    H     0.46280   0.05210   0.46070   0.01267  Uiso   1.00
H46    H     0.18700   0.02960   0.41800   0.01267  Uiso   1.00
H47    H     0.18620   0.89700   0.42360   0.01267  Uiso   1.00
H48    H     0.56130   0.95410   0.47910   0.01267  Uiso   1.00
H49    H     0.50830   0.88970   0.51430   0.01267  Uiso   1.00
H50    H     0.53140   0.86990   0.42410   0.01267  Uiso   1.00
H51    H     0.19430   0.64050   0.40030   0.01267  Uiso   1.00
H52    H     0.52950   0.70220   0.50020   0.01267  Uiso   1.00
H53    H     0.46080   0.74680   0.56460   0.01267  Uiso   1.00
H54    H     0.51490   0.67290   0.57770   0.01267  Uiso   1.00
H55    H     0.44290   0.54730   0.52830   0.01267  Uiso   1.00
H56    H     0.18370   0.51380   0.40840   0.01267  Uiso   1.00
H57    H     0.56560   0.22990   0.34330   0.01267  Uiso   1.00
H58    H     0.59230   0.36980   0.55260   0.01267  Uiso   1.00
H59    H     0.75640   0.36450   0.55310   0.01267  Uiso   1.00
H60    H     0.72580   0.22180   0.33640   0.01267  Uiso   1.00
H61    H     0.88930   0.28670   0.56170   0.01267  Uiso   1.00
H62    H     0.88120   0.27510   0.33110   0.01267  Uiso   1.00
H63    H     0.04480   0.27040   0.33400   0.01267  Uiso   1.00
H64    H     0.05500   0.28350   0.55630   0.01267  Uiso   1.00
C47    C     0.30830   0.26950   0.30310   0.01267  Uiso   1.00
C48    C     0.31050   0.27150   0.22210   0.01267  Uiso   1.00
C49    C     0.40240   0.28170   0.18930   0.01267  Uiso   1.00
C50    C     0.22650   0.26315   0.17325   0.01267  Uiso   1.00
C51    C     0.23280   0.26810   0.09730   0.01267  Uiso   1.00
C52    C     0.40600   0.28740   0.11260   0.01267  Uiso   1.00
C53    C     0.50570   0.29260   0.08000   0.01267  Uiso   1.00
C54    C     0.32260   0.28240   0.06620   0.01267  Uiso   1.00
C55    C     0.32270   0.28790   0.98790   0.01267  Uiso   1.00
C56    C     0.32120   0.29170   0.92150   0.01267  Uiso   1.00
C57    C     0.32000   0.29730   0.84310   0.01267  Uiso   1.00
C58    C     0.39690   0.32780   0.81220   0.01267  Uiso   1.00
C59    C     0.48400   0.35980   0.86080   0.01267  Uiso   1.00
C60    C     0.23930   0.27000   0.79440   0.01267  Uiso   1.00
C61    C     0.23660   0.27240   0.71740   0.01267  Uiso   1.00
C62    C     0.39060   0.32880   0.73300   0.01267  Uiso   1.00
C63    C     0.31120   0.29964   0.68656   0.01267  Uiso   1.00
C64    C     0.31450   0.29492   0.59768   0.01267  Uiso   1.00
C65    C     0.32510   0.13705   0.43875   0.01267  Uiso   1.00
C66    C     0.32790   0.05006   0.43614   0.01267  Uiso   1.00
C67    C     0.40640   0.01900   0.44940   0.01267  Uiso   1.00
C68    C     0.24530   0.00680   0.42660   0.01267  Uiso   1.00
C69    C     0.24450   0.92740   0.42940   0.01267  Uiso   1.00
C70    C     0.41490   0.94070   0.44850   0.01267  Uiso   1.00
C71    C     0.51300   0.91090   0.46830   0.01267  Uiso   1.00
C72    C     0.32980   0.89560   0.44060   0.01267  Uiso   1.00
C73    C     0.32810   0.81570   0.44770   0.01267  Uiso   1.00
C74    C     0.32960   0.75070   0.45330   0.01267  Uiso   1.00
C75    C     0.32470   0.67090   0.45970   0.01267  Uiso   1.00
C76    C     0.24470   0.62070   0.42590   0.01267  Uiso   1.00
C77    C     0.40030   0.64301   0.49879   0.01267  Uiso   1.00
C78    C     0.48370   0.69590   0.53890   0.01267  Uiso   1.00
C79    C     0.39370   0.56658   0.50102   0.01267  Uiso   1.00
C80    C     0.23880   0.54620   0.42920   0.01267  Uiso   1.00
C81    C     0.31850   0.51570   0.46510   0.01267  Uiso   1.00
C82    C     0.31410   0.43350   0.46930   0.01267  Uiso   1.00
C83    C     0.60530   0.25572   0.38728   0.01267  Uiso   1.00
C84    C     0.62060   0.33707   0.50947   0.01267  Uiso   1.00
C85    C     0.71800   0.33515   0.50983   0.01267  Uiso   1.00
C86    C     0.69950   0.25099   0.38241   0.01267  Uiso   1.00
C87    C     0.75910   0.28988   0.44628   0.01267  Uiso   1.00
C88    C     0.86560   0.28283   0.44503   0.01267  Uiso   1.00
C89    C     0.91930   0.28413   0.51407   0.01267  Uiso   1.00
C90    C     0.91500   0.27715   0.37905   0.01267  Uiso   1.00
C91    C     0.01300   0.27436   0.38104   0.01267  Uiso   1.00
C92    C     0.01800   0.28163   0.50977   0.01267  Uiso   1.00
N3     N     0.56360   0.29481   0.45077   0.01267  Uiso   1.00
N4     N     0.06380   0.27681   0.44461   0.01267  Uiso   1.00
O9     O     0.38480   0.27613   0.34207   0.01267  Uiso   1.00
O10    O     0.22710   0.26497   0.33181   0.01267  Uiso   1.00
O11    O     0.39190   0.29984   0.57156   0.01267  Uiso   1.00
O12    O     0.23220   0.28992   0.56362   0.01267  Uiso   1.00
O13    O     0.40240   0.17299   0.44391   0.01267  Uiso   1.00
O14    O     0.24360   0.16328   0.43392   0.01267  Uiso   1.00
O15    O     0.39560   0.40373   0.47547   0.01267  Uiso   1.00
O16    O     0.23670   0.39406   0.45994   0.01267  Uiso   1.00
Zn5    Zn    0.58075   0.54280   0.71015   0.01267  Uiso   1.00
Zn6    Zn    0.79079   0.55424   0.72314   0.01267  Uiso   1.00
H65    H     0.54020   0.77970   0.71550   0.01267  Uiso   1.00
H66    H     0.83390   0.80720   0.74580   0.01267  Uiso   1.00
H67    H     0.82370   0.93530   0.73810   0.01267  Uiso   1.00
H68    H     0.48420   0.93210   0.65670   0.01267  Uiso   1.00
H69    H     0.44530   0.88110   0.71310   0.01267  Uiso   1.00
H70    H     0.49000   0.96750   0.74890   0.01267  Uiso   1.00
H71    H     0.48580   0.12110   0.68190   0.01267  Uiso   1.00
H72    H     0.47150   0.17010   0.61790   0.01267  Uiso   1.00
H73    H     0.53310   0.09420   0.59940   0.01267  Uiso   1.00
H74    H     0.81470   0.18520   0.75060   0.01267  Uiso   1.00
H75    H     0.81980   0.31440   0.74580   0.01267  Uiso   1.00
H76    H     0.55710   0.28860   0.64980   0.01267  Uiso   1.00
H77    H     0.53720   0.53930   0.94790   0.01267  Uiso   1.00
H78    H     0.81300   0.58200   0.97040   0.01267  Uiso   1.00
H79    H     0.81380   0.57640   0.10300   0.01267  Uiso   1.00
H80    H     0.43870   0.52090   0.04590   0.01267  Uiso   1.00
H81    H     0.49170   0.48570   0.11030   0.01267  Uiso   1.00
H82    H     0.46860   0.57590   0.13010   0.01267  Uiso   1.00
H83    H     0.80570   0.59970   0.35950   0.01267  Uiso   1.00
H84    H     0.47050   0.49980   0.29780   0.01267  Uiso   1.00
H85    H     0.53920   0.43540   0.25320   0.01267  Uiso   1.00
H86    H     0.48510   0.42230   0.32710   0.01267  Uiso   1.00
H87    H     0.55710   0.47170   0.45270   0.01267  Uiso   1.00
H88    H     0.81630   0.59160   0.48620   0.01267  Uiso   1.00
H89    H     0.43440   0.65670   0.77010   0.01267  Uiso   1.00
H90    H     0.40770   0.44740   0.63020   0.01267  Uiso   1.00
H91    H     0.24360   0.44690   0.63550   0.01267  Uiso   1.00
H92    H     0.27420   0.66360   0.77820   0.01267  Uiso   1.00
H93    H     0.11070   0.43830   0.71330   0.01267  Uiso   1.00
H94    H     0.11880   0.66890   0.72490   0.01267  Uiso   1.00
H95    H     0.95520   0.66600   0.72960   0.01267  Uiso   1.00
H96    H     0.94500   0.44370   0.71650   0.01267  Uiso   1.00
C93    C     0.69170   0.69690   0.73050   0.01267  Uiso   1.00
C94    C     0.68950   0.77790   0.72850   0.01267  Uiso   1.00
C95    C     0.59760   0.81070   0.71830   0.01267  Uiso   1.00
C96    C     0.77350   0.82675   0.73685   0.01267  Uiso   1.00
C97    C     0.76720   0.90270   0.73190   0.01267  Uiso   1.00
C98    C     0.59400   0.88740   0.71260   0.01267  Uiso   1.00
C99    C     0.49430   0.92000   0.70740   0.01267  Uiso   1.00
C100   C     0.67740   0.93380   0.71760   0.01267  Uiso   1.00
C101   C     0.67730   0.01210   0.71210   0.01267  Uiso   1.00
C102   C     0.67880   0.07850   0.70830   0.01267  Uiso   1.00
C103   C     0.68000   0.15690   0.70270   0.01267  Uiso   1.00
C104   C     0.60310   0.18780   0.67220   0.01267  Uiso   1.00
C105   C     0.51600   0.13920   0.64020   0.01267  Uiso   1.00
C106   C     0.76070   0.20560   0.73000   0.01267  Uiso   1.00
C107   C     0.76340   0.28260   0.72760   0.01267  Uiso   1.00
C108   C     0.60940   0.26700   0.67120   0.01267  Uiso   1.00
C109   C     0.68880   0.31344   0.70036   0.01267  Uiso   1.00
C110   C     0.68550   0.40232   0.70508   0.01267  Uiso   1.00
C111   C     0.67490   0.56125   0.86295   0.01267  Uiso   1.00
C112   C     0.67210   0.56386   0.94994   0.01267  Uiso   1.00
C113   C     0.59360   0.55060   0.98100   0.01267  Uiso   1.00
C114   C     0.75470   0.57340   0.99320   0.01267  Uiso   1.00
C115   C     0.75550   0.57060   0.07260   0.01267  Uiso   1.00
C116   C     0.58510   0.55150   0.05930   0.01267  Uiso   1.00
C117   C     0.48700   0.53170   0.08910   0.01267  Uiso   1.00
C118   C     0.67020   0.55940   0.10440   0.01267  Uiso   1.00
C119   C     0.67190   0.55230   0.18430   0.01267  Uiso   1.00
C120   C     0.67040   0.54670   0.24930   0.01267  Uiso   1.00
C121   C     0.67530   0.54030   0.32910   0.01267  Uiso   1.00
C122   C     0.75530   0.57410   0.37930   0.01267  Uiso   1.00
C123   C     0.59970   0.50121   0.35699   0.01267  Uiso   1.00
C124   C     0.51630   0.46110   0.30410   0.01267  Uiso   1.00
C125   C     0.60630   0.49898   0.43342   0.01267  Uiso   1.00
C126   C     0.76120   0.57080   0.45380   0.01267  Uiso   1.00
C127   C     0.68150   0.53490   0.48430   0.01267  Uiso   1.00
C128   C     0.68590   0.53070   0.56650   0.01267  Uiso   1.00
C129   C     0.39470   0.61272   0.74428   0.01267  Uiso   1.00
C130   C     0.37940   0.49053   0.66293   0.01267  Uiso   1.00
C131   C     0.28200   0.49017   0.66485   0.01267  Uiso   1.00
C132   C     0.30050   0.61759   0.74901   0.01267  Uiso   1.00
C133   C     0.24090   0.55372   0.71012   0.01267  Uiso   1.00
C134   C     0.13440   0.55497   0.71717   0.01267  Uiso   1.00
C135   C     0.08070   0.48593   0.71587   0.01267  Uiso   1.00
C136   C     0.08500   0.62095   0.72285   0.01267  Uiso   1.00
C137   C     0.98700   0.61896   0.72564   0.01267  Uiso   1.00
C138   C     0.98200   0.49023   0.71837   0.01267  Uiso   1.00
N5     N     0.43640   0.54923   0.70519   0.01267  Uiso   1.00
N6     N     0.93620   0.55539   0.72319   0.01267  Uiso   1.00
O17    O     0.61520   0.65793   0.72387   0.01267  Uiso   1.00
O18    O     0.77290   0.66819   0.73503   0.01267  Uiso   1.00
O19    O     0.60810   0.42844   0.70016   0.01267  Uiso   1.00
O20    O     0.76780   0.43638   0.71008   0.01267  Uiso   1.00
O21    O     0.59760   0.55609   0.82701   0.01267  Uiso   1.00
O22    O     0.75640   0.56608   0.83672   0.01267  Uiso   1.00
O23    O     0.60440   0.52453   0.59627   0.01267  Uiso   1.00
O24    O     0.76330   0.54006   0.60594   0.01267  Uiso   1.00
