data_AFUKAP_clean
_audit_creation_date              2014-07-02
_audit_creation_method            'Materials Studio'
_symmetry_space_group_name_H-M    'P1'
_symmetry_Int_Tables_number       1
_symmetry_cell_setting            triclinic
loop_
_symmetry_equiv_pos_as_xyz
  x,y,z
_cell_length_a                    16.3860
_cell_length_b                    18.0643
_cell_length_c                    18.0643
_cell_angle_alpha                 112.0450
_cell_angle_beta                  106.5810
_cell_angle_gamma                 73.4186
loop_
_atom_site_label
_atom_site_type_symbol
_atom_site_fract_x
_atom_site_fract_y
_atom_site_fract_z
_atom_site_U_iso_or_equiv
_atom_site_adp_type
_atom_site_occupancy
Mn1    Mn    0.95966   0.85380   0.32054   0.01267  Uiso   1.00
Mn2    Mn    0.54034   0.32054   0.85380   0.01267  Uiso   1.00
Mn3    Mn    0.04034   0.14620   0.67946   0.01267  Uiso   1.00
Mn4    Mn    0.45966   0.67946   0.14620   0.01267  Uiso   1.00
Mn5    Mn    0.00000   0.00000   0.50000   0.01267  Uiso   1.00
Mn6    Mn    0.50000   0.50000   0.00000   0.01267  Uiso   1.00
H1     H     0.04640   0.25770   0.19250   0.01267  Uiso   1.00
H2     H     0.14300   0.23290   0.23410   0.01267  Uiso   1.00
H3     H     0.00310   0.41620   0.32760   0.01267  Uiso   1.00
H4     H     0.02410   0.47290   0.29110   0.01267  Uiso   1.00
H5     H     0.18190   0.33150   0.18070   0.01267  Uiso   1.00
H6     H     0.08350   0.34620   0.14000   0.01267  Uiso   1.00
H7     H     0.18320   0.43160   0.34760   0.01267  Uiso   1.00
H8     H     0.15910   0.37600   0.38320   0.01267  Uiso   1.00
H9     H     0.08100   0.12080   0.20020   0.01267  Uiso   1.00
H10    H     0.03830   0.00810   0.20410   0.01267  Uiso   1.00
H11    H     0.95650   0.14530   0.41190   0.01267  Uiso   1.00
H12    H     0.98670   0.25510   0.40230   0.01267  Uiso   1.00
H13    H     0.82260   0.37220   0.09600   0.01267  Uiso   1.00
H14    H     0.68530   0.45130   0.08610   0.01267  Uiso   1.00
H15    H     0.75370   0.61670   0.29650   0.01267  Uiso   1.00
H16    H     0.89290   0.53450   0.31550   0.01267  Uiso   1.00
H17    H     0.21580   0.36080   0.09080   0.01267  Uiso   1.00
H18    H     0.31110   0.40740   0.05000   0.01267  Uiso   1.00
H19    H     0.23860   0.63220   0.19620   0.01267  Uiso   1.00
H20    H     0.15070   0.58420   0.24160   0.01267  Uiso   1.00
H21    H     0.79900   0.74310   0.23330   0.01267  Uiso   1.00
H22    H     0.81140   0.61490   0.12150   0.01267  Uiso   1.00
H23    H     0.02500   0.69680   0.16940   0.01267  Uiso   1.00
H24    H     0.91630   0.48390   0.07290   0.01267  Uiso   1.00
H25    H     0.96990   0.37560   0.98120   0.01267  Uiso   1.00
H26    H     0.45360   0.19250   0.25770   0.01267  Uiso   1.00
H27    H     0.35700   0.23410   0.23290   0.01267  Uiso   1.00
H28    H     0.49690   0.32760   0.41620   0.01267  Uiso   1.00
H29    H     0.47590   0.29110   0.47290   0.01267  Uiso   1.00
H30    H     0.31810   0.18070   0.33150   0.01267  Uiso   1.00
H31    H     0.41650   0.14000   0.34620   0.01267  Uiso   1.00
H32    H     0.31680   0.34760   0.43160   0.01267  Uiso   1.00
H33    H     0.34090   0.38320   0.37600   0.01267  Uiso   1.00
H34    H     0.41900   0.20020   0.12080   0.01267  Uiso   1.00
H35    H     0.46170   0.20410   0.00810   0.01267  Uiso   1.00
H36    H     0.54350   0.41190   0.14530   0.01267  Uiso   1.00
H37    H     0.51330   0.40230   0.25510   0.01267  Uiso   1.00
H38    H     0.67740   0.09600   0.37220   0.01267  Uiso   1.00
H39    H     0.81470   0.08610   0.45130   0.01267  Uiso   1.00
H40    H     0.74630   0.29650   0.61670   0.01267  Uiso   1.00
H41    H     0.60710   0.31550   0.53450   0.01267  Uiso   1.00
H42    H     0.28420   0.09080   0.36080   0.01267  Uiso   1.00
H43    H     0.18890   0.05000   0.40740   0.01267  Uiso   1.00
H44    H     0.26140   0.19620   0.63220   0.01267  Uiso   1.00
H45    H     0.34930   0.24160   0.58420   0.01267  Uiso   1.00
H46    H     0.70100   0.23330   0.74310   0.01267  Uiso   1.00
H47    H     0.68860   0.12150   0.61490   0.01267  Uiso   1.00
H48    H     0.47500   0.16940   0.69680   0.01267  Uiso   1.00
H49    H     0.58370   0.07290   0.48390   0.01267  Uiso   1.00
H50    H     0.53010   0.98120   0.37560   0.01267  Uiso   1.00
H51    H     0.95360   0.74230   0.80750   0.01267  Uiso   1.00
H52    H     0.85700   0.76710   0.76590   0.01267  Uiso   1.00
H53    H     0.99690   0.58380   0.67240   0.01267  Uiso   1.00
H54    H     0.97590   0.52710   0.70890   0.01267  Uiso   1.00
H55    H     0.81810   0.66850   0.81930   0.01267  Uiso   1.00
H56    H     0.91650   0.65380   0.86000   0.01267  Uiso   1.00
H57    H     0.81680   0.56840   0.65240   0.01267  Uiso   1.00
H58    H     0.84090   0.62400   0.61680   0.01267  Uiso   1.00
H59    H     0.91900   0.87920   0.79980   0.01267  Uiso   1.00
H60    H     0.96170   0.99190   0.79590   0.01267  Uiso   1.00
H61    H     0.04350   0.85470   0.58810   0.01267  Uiso   1.00
H62    H     0.01330   0.74490   0.59770   0.01267  Uiso   1.00
H63    H     0.17740   0.62780   0.90400   0.01267  Uiso   1.00
H64    H     0.31470   0.54870   0.91390   0.01267  Uiso   1.00
H65    H     0.24630   0.38330   0.70350   0.01267  Uiso   1.00
H66    H     0.10710   0.46550   0.68450   0.01267  Uiso   1.00
H67    H     0.78420   0.63920   0.90920   0.01267  Uiso   1.00
H68    H     0.68890   0.59260   0.95000   0.01267  Uiso   1.00
H69    H     0.76140   0.36780   0.80380   0.01267  Uiso   1.00
H70    H     0.84930   0.41580   0.75840   0.01267  Uiso   1.00
H71    H     0.20100   0.25690   0.76670   0.01267  Uiso   1.00
H72    H     0.18860   0.38510   0.87850   0.01267  Uiso   1.00
H73    H     0.97500   0.30320   0.83060   0.01267  Uiso   1.00
H74    H     0.08370   0.51610   0.92710   0.01267  Uiso   1.00
H75    H     0.03010   0.62440   0.01880   0.01267  Uiso   1.00
H76    H     0.54640   0.80750   0.74230   0.01267  Uiso   1.00
H77    H     0.64300   0.76590   0.76710   0.01267  Uiso   1.00
H78    H     0.50310   0.67240   0.58380   0.01267  Uiso   1.00
H79    H     0.52410   0.70890   0.52710   0.01267  Uiso   1.00
H80    H     0.68190   0.81930   0.66850   0.01267  Uiso   1.00
H81    H     0.58350   0.86000   0.65380   0.01267  Uiso   1.00
H82    H     0.68320   0.65240   0.56840   0.01267  Uiso   1.00
H83    H     0.65910   0.61680   0.62400   0.01267  Uiso   1.00
H84    H     0.58100   0.79980   0.87920   0.01267  Uiso   1.00
H85    H     0.53830   0.79590   0.99190   0.01267  Uiso   1.00
H86    H     0.45650   0.58810   0.85470   0.01267  Uiso   1.00
H87    H     0.48670   0.59770   0.74490   0.01267  Uiso   1.00
H88    H     0.32260   0.90400   0.62780   0.01267  Uiso   1.00
H89    H     0.18530   0.91390   0.54870   0.01267  Uiso   1.00
H90    H     0.25370   0.70350   0.38330   0.01267  Uiso   1.00
H91    H     0.39290   0.68450   0.46550   0.01267  Uiso   1.00
H92    H     0.71580   0.90920   0.63920   0.01267  Uiso   1.00
H93    H     0.81110   0.95000   0.59260   0.01267  Uiso   1.00
H94    H     0.73860   0.80380   0.36780   0.01267  Uiso   1.00
H95    H     0.65070   0.75840   0.41580   0.01267  Uiso   1.00
H96    H     0.29900   0.76670   0.25690   0.01267  Uiso   1.00
H97    H     0.31140   0.87850   0.38510   0.01267  Uiso   1.00
H98    H     0.52500   0.83060   0.30320   0.01267  Uiso   1.00
H99    H     0.41630   0.92710   0.51610   0.01267  Uiso   1.00
H100   H     0.46990   0.01880   0.62440   0.01267  Uiso   1.00
C1     C     0.10160   0.35827   0.26353   0.01267  Uiso   1.00
C2     C     0.08920   0.27100   0.24180   0.01267  Uiso   1.00
C3     C     0.01730   0.41850   0.28050   0.01267  Uiso   1.00
C4     C     0.12570   0.36460   0.18840   0.01267  Uiso   1.00
C5     C     0.17390   0.37790   0.33630   0.01267  Uiso   1.00
C6     C     0.04070   0.19850   0.30250   0.01267  Uiso   1.00
C7     C     0.05540   0.12590   0.24210   0.01267  Uiso   1.00
C8     C     0.03030   0.05790   0.24530   0.01267  Uiso   1.00
C9     C     0.99430   0.06470   0.30890   0.01267  Uiso   1.00
C10    C     0.98000   0.13990   0.36850   0.01267  Uiso   1.00
C11    C     0.00010   0.20450   0.36370   0.01267  Uiso   1.00
C12    C     0.97340   0.99280   0.31340   0.01267  Uiso   1.00
C13    C     0.87160   0.44660   0.20920   0.01267  Uiso   1.00
C14    C     0.80890   0.42040   0.13740   0.01267  Uiso   1.00
C15    C     0.72770   0.46870   0.13170   0.01267  Uiso   1.00
C16    C     0.70620   0.54130   0.18990   0.01267  Uiso   1.00
C17    C     0.76730   0.56670   0.25730   0.01267  Uiso   1.00
C18    C     0.85180   0.51790   0.26830   0.01267  Uiso   1.00
C19    C     0.61710   0.59150   0.17870   0.01267  Uiso   1.00
C20    C     0.17860   0.46900   0.17300   0.01267  Uiso   1.00
C21    C     0.22270   0.41470   0.11390   0.01267  Uiso   1.00
C22    C     0.27920   0.44350   0.08910   0.01267  Uiso   1.00
C23    C     0.28760   0.52240   0.12140   0.01267  Uiso   1.00
C24    C     0.23690   0.57700   0.17680   0.01267  Uiso   1.00
C25    C     0.18330   0.54840   0.20320   0.01267  Uiso   1.00
C26    C     0.35090   0.55180   0.09860   0.01267  Uiso   1.00
C27    C     0.84580   0.71840   0.20420   0.01267  Uiso   1.00
C28    C     0.85220   0.64820   0.14420   0.01267  Uiso   1.00
C29    C     0.96990   0.69330   0.17050   0.01267  Uiso   1.00
C30    C     0.96590   0.56480   0.05960   0.01267  Uiso   1.00
C31    C     0.95080   0.49060   0.04380   0.01267  Uiso   1.00
C32    C     0.98590   0.42420   0.98500   0.01267  Uiso   1.00
C33    C     0.39840   0.26353   0.35827   0.01267  Uiso   1.00
C34    C     0.41080   0.24180   0.27100   0.01267  Uiso   1.00
C35    C     0.48270   0.28050   0.41850   0.01267  Uiso   1.00
C36    C     0.37430   0.18840   0.36460   0.01267  Uiso   1.00
C37    C     0.32610   0.33630   0.37790   0.01267  Uiso   1.00
C38    C     0.45930   0.30250   0.19850   0.01267  Uiso   1.00
C39    C     0.44460   0.24210   0.12590   0.01267  Uiso   1.00
C40    C     0.46970   0.24530   0.05790   0.01267  Uiso   1.00
C41    C     0.50570   0.30890   0.06470   0.01267  Uiso   1.00
C42    C     0.52000   0.36850   0.13990   0.01267  Uiso   1.00
C43    C     0.49990   0.36370   0.20450   0.01267  Uiso   1.00
C44    C     0.52660   0.31340   0.99280   0.01267  Uiso   1.00
C45    C     0.62840   0.20920   0.44660   0.01267  Uiso   1.00
C46    C     0.69110   0.13740   0.42040   0.01267  Uiso   1.00
C47    C     0.77230   0.13170   0.46870   0.01267  Uiso   1.00
C48    C     0.79380   0.18990   0.54130   0.01267  Uiso   1.00
C49    C     0.73270   0.25730   0.56670   0.01267  Uiso   1.00
C50    C     0.64820   0.26830   0.51790   0.01267  Uiso   1.00
C51    C     0.88290   0.17870   0.59150   0.01267  Uiso   1.00
C52    C     0.32140   0.17300   0.46900   0.01267  Uiso   1.00
C53    C     0.27730   0.11390   0.41470   0.01267  Uiso   1.00
C54    C     0.22080   0.08910   0.44350   0.01267  Uiso   1.00
C55    C     0.21240   0.12140   0.52240   0.01267  Uiso   1.00
C56    C     0.26310   0.17680   0.57700   0.01267  Uiso   1.00
C57    C     0.31670   0.20320   0.54840   0.01267  Uiso   1.00
C58    C     0.14910   0.09860   0.55180   0.01267  Uiso   1.00
C59    C     0.65420   0.20420   0.71840   0.01267  Uiso   1.00
C60    C     0.64780   0.14420   0.64820   0.01267  Uiso   1.00
C61    C     0.53010   0.17050   0.69330   0.01267  Uiso   1.00
C62    C     0.53410   0.05960   0.56480   0.01267  Uiso   1.00
C63    C     0.54920   0.04380   0.49060   0.01267  Uiso   1.00
C64    C     0.51410   0.98500   0.42420   0.01267  Uiso   1.00
C65    C     0.89840   0.64173   0.73647   0.01267  Uiso   1.00
C66    C     0.91080   0.72900   0.75820   0.01267  Uiso   1.00
C67    C     0.98270   0.58150   0.71950   0.01267  Uiso   1.00
C68    C     0.87430   0.63540   0.81160   0.01267  Uiso   1.00
C69    C     0.82610   0.62210   0.66370   0.01267  Uiso   1.00
C70    C     0.95930   0.80150   0.69750   0.01267  Uiso   1.00
C71    C     0.94460   0.87410   0.75790   0.01267  Uiso   1.00
C72    C     0.96970   0.94210   0.75470   0.01267  Uiso   1.00
C73    C     0.00570   0.93530   0.69110   0.01267  Uiso   1.00
C74    C     0.02000   0.86010   0.63150   0.01267  Uiso   1.00
C75    C     0.99990   0.79550   0.63630   0.01267  Uiso   1.00
C76    C     0.02660   0.00720   0.68660   0.01267  Uiso   1.00
C77    C     0.12840   0.55340   0.79080   0.01267  Uiso   1.00
C78    C     0.19110   0.57960   0.86260   0.01267  Uiso   1.00
C79    C     0.27230   0.53130   0.86830   0.01267  Uiso   1.00
C80    C     0.29380   0.45870   0.81010   0.01267  Uiso   1.00
C81    C     0.23270   0.43330   0.74270   0.01267  Uiso   1.00
C82    C     0.14820   0.48210   0.73170   0.01267  Uiso   1.00
C83    C     0.38290   0.40850   0.82130   0.01267  Uiso   1.00
C84    C     0.82140   0.53100   0.82700   0.01267  Uiso   1.00
C85    C     0.77730   0.58530   0.88610   0.01267  Uiso   1.00
C86    C     0.72080   0.55650   0.91090   0.01267  Uiso   1.00
C87    C     0.71240   0.47760   0.87860   0.01267  Uiso   1.00
C88    C     0.76310   0.42300   0.82320   0.01267  Uiso   1.00
C89    C     0.81670   0.45160   0.79680   0.01267  Uiso   1.00
C90    C     0.64910   0.44820   0.90140   0.01267  Uiso   1.00
C91    C     0.15420   0.28160   0.79580   0.01267  Uiso   1.00
C92    C     0.14780   0.35180   0.85580   0.01267  Uiso   1.00
C93    C     0.03010   0.30670   0.82950   0.01267  Uiso   1.00
C94    C     0.03410   0.43520   0.94040   0.01267  Uiso   1.00
C95    C     0.04920   0.50940   0.95620   0.01267  Uiso   1.00
C96    C     0.01410   0.57580   0.01500   0.01267  Uiso   1.00
C97    C     0.60160   0.73647   0.64173   0.01267  Uiso   1.00
C98    C     0.58920   0.75820   0.72900   0.01267  Uiso   1.00
C99    C     0.51730   0.71950   0.58150   0.01267  Uiso   1.00
C100   C     0.62570   0.81160   0.63540   0.01267  Uiso   1.00
C101   C     0.67390   0.66370   0.62210   0.01267  Uiso   1.00
C102   C     0.54070   0.69750   0.80150   0.01267  Uiso   1.00
C103   C     0.55540   0.75790   0.87410   0.01267  Uiso   1.00
C104   C     0.53030   0.75470   0.94210   0.01267  Uiso   1.00
C105   C     0.49430   0.69110   0.93530   0.01267  Uiso   1.00
C106   C     0.48000   0.63150   0.86010   0.01267  Uiso   1.00
C107   C     0.50010   0.63630   0.79550   0.01267  Uiso   1.00
C108   C     0.47340   0.68660   0.00720   0.01267  Uiso   1.00
C109   C     0.37160   0.79080   0.55340   0.01267  Uiso   1.00
C110   C     0.30890   0.86260   0.57960   0.01267  Uiso   1.00
C111   C     0.22770   0.86830   0.53130   0.01267  Uiso   1.00
C112   C     0.20620   0.81010   0.45870   0.01267  Uiso   1.00
C113   C     0.26730   0.74270   0.43330   0.01267  Uiso   1.00
C114   C     0.35180   0.73170   0.48210   0.01267  Uiso   1.00
C115   C     0.11710   0.82130   0.40850   0.01267  Uiso   1.00
C116   C     0.67860   0.82700   0.53100   0.01267  Uiso   1.00
C117   C     0.72270   0.88610   0.58530   0.01267  Uiso   1.00
C118   C     0.77920   0.91090   0.55650   0.01267  Uiso   1.00
C119   C     0.78760   0.87860   0.47760   0.01267  Uiso   1.00
C120   C     0.73690   0.82320   0.42300   0.01267  Uiso   1.00
C121   C     0.68330   0.79680   0.45160   0.01267  Uiso   1.00
C122   C     0.85090   0.90140   0.44820   0.01267  Uiso   1.00
C123   C     0.34580   0.79580   0.28160   0.01267  Uiso   1.00
C124   C     0.35220   0.85580   0.35180   0.01267  Uiso   1.00
C125   C     0.46990   0.82950   0.30670   0.01267  Uiso   1.00
C126   C     0.46590   0.94040   0.43520   0.01267  Uiso   1.00
C127   C     0.45080   0.95620   0.50940   0.01267  Uiso   1.00
C128   C     0.48590   0.01500   0.57580   0.01267  Uiso   1.00
N1     N     0.92030   0.74920   0.22280   0.01267  Uiso   1.00
N2     N     0.93030   0.63310   0.12130   0.01267  Uiso   1.00
N3     N     0.57970   0.22280   0.74920   0.01267  Uiso   1.00
N4     N     0.56970   0.12130   0.63310   0.01267  Uiso   1.00
N5     N     0.07970   0.25080   0.77720   0.01267  Uiso   1.00
N6     N     0.06970   0.36690   0.87870   0.01267  Uiso   1.00
N7     N     0.42030   0.77720   0.25080   0.01267  Uiso   1.00
N8     N     0.43030   0.87870   0.36690   0.01267  Uiso   1.00
O1     O     0.06030   0.26913   0.30767   0.01267  Uiso   1.00
O2     O     0.95040   0.39640   0.21160   0.01267  Uiso   1.00
O3     O     0.12590   0.44816   0.20684   0.01267  Uiso   1.00
O4     O     0.98670   0.92557   0.26003   0.01267  Uiso   1.00
O5     O     0.94360   0.99871   0.37349   0.01267  Uiso   1.00
O6     O     0.55790   0.56253   0.12567   0.01267  Uiso   1.00
O7     O     0.60030   0.66630   0.22450   0.01267  Uiso   1.00
O8     O     0.39220   0.50190   0.04450   0.01267  Uiso   1.00
O9     O     0.36170   0.62319   0.13761   0.01267  Uiso   1.00
O10    O     0.43970   0.30767   0.26913   0.01267  Uiso   1.00
O11    O     0.54960   0.21160   0.39640   0.01267  Uiso   1.00
O12    O     0.37410   0.20684   0.44816   0.01267  Uiso   1.00
O13    O     0.51330   0.26003   0.92557   0.01267  Uiso   1.00
O14    O     0.55640   0.37349   0.99871   0.01267  Uiso   1.00
O15    O     0.94210   0.12567   0.56253   0.01267  Uiso   1.00
O16    O     0.89970   0.22450   0.66630   0.01267  Uiso   1.00
O17    O     0.10780   0.04450   0.50190   0.01267  Uiso   1.00
O18    O     0.13830   0.13761   0.62319   0.01267  Uiso   1.00
O19    O     0.93970   0.73087   0.69233   0.01267  Uiso   1.00
O20    O     0.04960   0.60360   0.78840   0.01267  Uiso   1.00
O21    O     0.87410   0.55184   0.79316   0.01267  Uiso   1.00
O22    O     0.01330   0.07443   0.73997   0.01267  Uiso   1.00
O23    O     0.05640   0.00129   0.62651   0.01267  Uiso   1.00
O24    O     0.44210   0.43747   0.87433   0.01267  Uiso   1.00
O25    O     0.39970   0.33370   0.77550   0.01267  Uiso   1.00
O26    O     0.60780   0.49810   0.95550   0.01267  Uiso   1.00
O27    O     0.63830   0.37681   0.86239   0.01267  Uiso   1.00
O28    O     0.56030   0.69233   0.73087   0.01267  Uiso   1.00
O29    O     0.45040   0.78840   0.60360   0.01267  Uiso   1.00
O30    O     0.62590   0.79316   0.55184   0.01267  Uiso   1.00
O31    O     0.48670   0.73997   0.07443   0.01267  Uiso   1.00
O32    O     0.44360   0.62651   0.00129   0.01267  Uiso   1.00
O33    O     0.05790   0.87433   0.43747   0.01267  Uiso   1.00
O34    O     0.10030   0.77550   0.33370   0.01267  Uiso   1.00
O35    O     0.89220   0.95550   0.49810   0.01267  Uiso   1.00
O36    O     0.86170   0.86239   0.37681   0.01267  Uiso   1.00
O37    O     0.25000   0.32030   0.32030   0.01267  Uiso   1.00
O38    O     0.75000   0.67970   0.67970   0.01267  Uiso   1.00
