data_AGAXOV_clean
_audit_creation_date              2014-07-02
_audit_creation_method            'Materials Studio'
_symmetry_space_group_name_H-M    'P1'
_symmetry_Int_Tables_number       1
_symmetry_cell_setting            triclinic
loop_
_symmetry_equiv_pos_as_xyz
  x,y,z
_cell_length_a                    11.0318
_cell_length_b                    18.0673
_cell_length_c                    18.4528
_cell_angle_alpha                 104.8120
_cell_angle_beta                  97.0750
_cell_angle_gamma                 95.2060
loop_
_atom_site_label
_atom_site_type_symbol
_atom_site_fract_x
_atom_site_fract_y
_atom_site_fract_z
_atom_site_U_iso_or_equiv
_atom_site_adp_type
_atom_site_occupancy
Cu1    Cu    0.57586   0.44756   0.98229   0.01267  Uiso   1.00
Cu2    Cu    0.96106   0.55487   0.55117   0.01267  Uiso   1.00
Cu3    Cu    0.42471   0.02014   0.55054   0.01267  Uiso   1.00
Cu4    Cu    0.10828   0.97871   0.98263   0.01267  Uiso   1.00
Cu5    Cu    0.42414   0.55244   0.01771   0.01267  Uiso   1.00
Cu6    Cu    0.03894   0.44513   0.44883   0.01267  Uiso   1.00
Cu7    Cu    0.57529   0.97986   0.44946   0.01267  Uiso   1.00
Cu8    Cu    0.89172   0.02129   0.01737   0.01267  Uiso   1.00
H1     H     0.48370   0.39530   0.72400   0.01267  Uiso   1.00
H2     H     0.36140   0.39630   0.60230   0.01267  Uiso   1.00
H3     H     0.66240   0.40190   0.61890   0.01267  Uiso   1.00
H4     H     0.54610   0.28210   0.62170   0.01267  Uiso   1.00
H5     H     0.89100   0.93240   0.60870   0.01267  Uiso   1.00
H6     H     0.01120   0.93130   0.73080   0.01267  Uiso   1.00
H7     H     0.08350   0.39260   0.01050   0.01267  Uiso   1.00
H8     H     0.96230   0.27120   0.01160   0.01267  Uiso   1.00
H9     H     0.51630   0.60470   0.27600   0.01267  Uiso   1.00
H10    H     0.63860   0.60370   0.39770   0.01267  Uiso   1.00
H11    H     0.33760   0.59810   0.38110   0.01267  Uiso   1.00
H12    H     0.45390   0.71790   0.37830   0.01267  Uiso   1.00
H13    H     0.10900   0.06760   0.39130   0.01267  Uiso   1.00
H14    H     0.98880   0.06870   0.26920   0.01267  Uiso   1.00
H15    H     0.91650   0.60740   0.98950   0.01267  Uiso   1.00
H16    H     0.03770   0.72880   0.98840   0.01267  Uiso   1.00
C1     C     0.42700   0.48660   0.86160   0.01267  Uiso   1.00
C2     C     0.38050   0.47500   0.77870   0.01267  Uiso   1.00
C3     C     0.41850   0.42550   0.71960   0.01267  Uiso   1.00
C4     C     0.34680   0.42560   0.65040   0.01267  Uiso   1.00
C5     C     0.25740   0.47020   0.65880   0.01267  Uiso   1.00
C6     C     0.16390   0.48120   0.59930   0.01267  Uiso   1.00
C7     C     0.84590   0.40240   0.52550   0.01267  Uiso   1.00
C8     C     0.75560   0.34230   0.53880   0.01267  Uiso   1.00
C9     C     0.67290   0.35270   0.58800   0.01267  Uiso   1.00
C10    C     0.60550   0.28460   0.58890   0.01267  Uiso   1.00
C11    C     0.63250   0.22240   0.53880   0.01267  Uiso   1.00
C12    C     0.58280   0.14000   0.52350   0.01267  Uiso   1.00
C13    C     0.65950   0.98570   0.60250   0.01267  Uiso   1.00
C14    C     0.75340   0.97400   0.66210   0.01267  Uiso   1.00
C15    C     0.86200   0.94820   0.65590   0.01267  Uiso   1.00
C16    C     0.93100   0.94630   0.72570   0.01267  Uiso   1.00
C17    C     0.86800   0.96840   0.78280   0.01267  Uiso   1.00
C18    C     0.91250   0.97780   0.86440   0.01267  Uiso   1.00
C19    C     0.33370   0.39550   0.99890   0.01267  Uiso   1.00
C20    C     0.23540   0.33550   0.00070   0.01267  Uiso   1.00
C21    C     0.11630   0.34520   0.00700   0.01267  Uiso   1.00
C22    C     0.04760   0.27590   0.00770   0.01267  Uiso   1.00
C23    C     0.11610   0.21650   0.00230   0.01267  Uiso   1.00
C24    C     0.07510   0.13640   0.00050   0.01267  Uiso   1.00
C25    C     0.57300   0.51340   0.13840   0.01267  Uiso   1.00
C26    C     0.61950   0.52500   0.22130   0.01267  Uiso   1.00
C27    C     0.58150   0.57450   0.28040   0.01267  Uiso   1.00
C28    C     0.65320   0.57440   0.34960   0.01267  Uiso   1.00
C29    C     0.74260   0.52980   0.34120   0.01267  Uiso   1.00
C30    C     0.83610   0.51880   0.40070   0.01267  Uiso   1.00
C31    C     0.15410   0.59760   0.47450   0.01267  Uiso   1.00
C32    C     0.24440   0.65770   0.46120   0.01267  Uiso   1.00
C33    C     0.32710   0.64730   0.41200   0.01267  Uiso   1.00
C34    C     0.39450   0.71540   0.41110   0.01267  Uiso   1.00
C35    C     0.36750   0.77760   0.46120   0.01267  Uiso   1.00
C36    C     0.41720   0.86000   0.47650   0.01267  Uiso   1.00
C37    C     0.34050   0.01430   0.39750   0.01267  Uiso   1.00
C38    C     0.24660   0.02600   0.33790   0.01267  Uiso   1.00
C39    C     0.13800   0.05180   0.34410   0.01267  Uiso   1.00
C40    C     0.06900   0.05370   0.27430   0.01267  Uiso   1.00
C41    C     0.13200   0.03160   0.21720   0.01267  Uiso   1.00
C42    C     0.08750   0.02220   0.13560   0.01267  Uiso   1.00
C43    C     0.66630   0.60450   0.00110   0.01267  Uiso   1.00
C44    C     0.76460   0.66450   0.99930   0.01267  Uiso   1.00
C45    C     0.88370   0.65480   0.99300   0.01267  Uiso   1.00
C46    C     0.95240   0.72410   0.99230   0.01267  Uiso   1.00
C47    C     0.88390   0.78350   0.99770   0.01267  Uiso   1.00
C48    C     0.92490   0.86360   0.99950   0.01267  Uiso   1.00
S1     S     0.26130   0.51877   0.75150   0.01267  Uiso   1.00
S2     S     0.74800   0.24774   0.49034   0.01267  Uiso   1.00
S3     S     0.72890   0.99534   0.75475   0.01267  Uiso   1.00
S4     S     0.26400   0.24332   0.99439   0.01267  Uiso   1.00
S5     S     0.73870   0.48123   0.24850   0.01267  Uiso   1.00
S6     S     0.25200   0.75226   0.50966   0.01267  Uiso   1.00
S7     S     0.27110   0.00466   0.24525   0.01267  Uiso   1.00
S8     S     0.73600   0.75668   0.00561   0.01267  Uiso   1.00
O1     O     0.50920   0.44710   0.87820   0.01267  Uiso   1.00
O2     O     0.38240   0.53640   0.90690   0.01267  Uiso   1.00
O3     O     0.09370   0.52980   0.62000   0.01267  Uiso   1.00
O4     O     0.16080   0.43800   0.53300   0.01267  Uiso   1.00
O5     O     0.84510   0.47080   0.56350   0.01267  Uiso   1.00
O6     O     0.91340   0.37750   0.47740   0.01267  Uiso   1.00
O7     O     0.50170   0.12550   0.56120   0.01267  Uiso   1.00
O8     O     0.62940   0.09170   0.47510   0.01267  Uiso   1.00
O9     O     0.69080   0.97230   0.53670   0.01267  Uiso   1.00
O10    O     0.56210   0.00750   0.62370   0.01267  Uiso   1.00
O11    O     0.01940   0.96190   0.87920   0.01267  Uiso   1.00
O12    O     0.83860   0.99970   0.90910   0.01267  Uiso   1.00
O13    O     0.43440   0.37410   0.98320   0.01267  Uiso   1.00
O14    O     0.30490   0.46380   0.01260   0.01267  Uiso   1.00
O15    O     0.14810   0.08860   0.98840   0.01267  Uiso   1.00
O16    O     0.96780   0.12400   0.01610   0.01267  Uiso   1.00
O17    O     0.49080   0.55290   0.12180   0.01267  Uiso   1.00
O18    O     0.61760   0.46360   0.09310   0.01267  Uiso   1.00
O19    O     0.90630   0.47020   0.38000   0.01267  Uiso   1.00
O20    O     0.83920   0.56200   0.46700   0.01267  Uiso   1.00
O21    O     0.15490   0.52920   0.43650   0.01267  Uiso   1.00
O22    O     0.08660   0.62250   0.52260   0.01267  Uiso   1.00
O23    O     0.49830   0.87450   0.43880   0.01267  Uiso   1.00
O24    O     0.37060   0.90830   0.52490   0.01267  Uiso   1.00
O25    O     0.30920   0.02770   0.46330   0.01267  Uiso   1.00
O26    O     0.43790   0.99250   0.37630   0.01267  Uiso   1.00
O27    O     0.98060   0.03810   0.12080   0.01267  Uiso   1.00
O28    O     0.16140   0.00030   0.09090   0.01267  Uiso   1.00
O29    O     0.56560   0.62590   0.01680   0.01267  Uiso   1.00
O30    O     0.69510   0.53620   0.98740   0.01267  Uiso   1.00
O31    O     0.85190   0.91140   0.01160   0.01267  Uiso   1.00
O32    O     0.03220   0.87600   0.98390   0.01267  Uiso   1.00
