data_AKUHOD03_clean
_audit_creation_date              2014-07-02
_audit_creation_method            'Materials Studio'
_symmetry_space_group_name_H-M    'P1'
_symmetry_Int_Tables_number       1
_symmetry_cell_setting            triclinic
loop_
_symmetry_equiv_pos_as_xyz
  x,y,z
_cell_length_a                    10.5269
_cell_length_b                    10.5269
_cell_length_c                    10.7521
_cell_angle_alpha                 101.5800
_cell_angle_beta                  117.5550
_cell_angle_gamma                 108.8130
loop_
_atom_site_label
_atom_site_type_symbol
_atom_site_fract_x
_atom_site_fract_y
_atom_site_fract_z
_atom_site_U_iso_or_equiv
_atom_site_adp_type
_atom_site_occupancy
Gd1    Gd    0.95141   0.39144   0.05111   0.01267  Uiso   1.00
Gd2    Gd    0.26045   0.82475   0.78412   0.01267  Uiso   1.00
Gd3    Gd    0.15967   0.09970   0.55111   0.01267  Uiso   1.00
Gd4    Gd    0.45937   0.52367   0.28412   0.01267  Uiso   1.00
H1     H     0.90300   0.71400   0.92500   0.01267  Uiso   1.00
H2     H     0.32000   0.91900   0.39300   0.01267  Uiso   1.00
H3     H     0.48600   0.86800   0.47800   0.01267  Uiso   1.00
H4     H     0.94900   0.24000   0.77700   0.01267  Uiso   1.00
H5     H     0.67200   0.85600   0.86800   0.01267  Uiso   1.00
H6     H     0.80700   0.92000   0.98900   0.01267  Uiso   1.00
H7     H     0.35000   0.05400   0.03000   0.01267  Uiso   1.00
H8     H     0.32400   0.98400   0.04000   0.01267  Uiso   1.00
H9     H     0.71100   0.02200   0.42500   0.01267  Uiso   1.00
H10    H     0.97400   0.07300   0.89300   0.01267  Uiso   1.00
H11    H     0.11000   0.99200   0.97800   0.01267  Uiso   1.00
H12    H     0.03700   0.82800   0.27700   0.01267  Uiso   1.00
H13    H     0.51200   0.19600   0.36800   0.01267  Uiso   1.00
H14    H     0.56900   0.18200   0.48900   0.01267  Uiso   1.00
H15    H     0.47600   0.68000   0.53000   0.01267  Uiso   1.00
H16    H     0.55600   0.71600   0.54000   0.01267  Uiso   1.00
C1     C     0.72910   0.53140   0.83490   0.01267  Uiso   1.00
C2     C     0.87750   0.66660   0.87970   0.01267  Uiso   1.00
C3     C     0.02240   0.64450   0.90570   0.01267  Uiso   1.00
C4     C     0.20800   0.68680   0.28660   0.01267  Uiso   1.00
C5     C     0.34220   0.84020   0.41800   0.01267  Uiso   1.00
C6     C     0.31110   0.84220   0.54050   0.01267  Uiso   1.00
C7     C     0.60510   0.80170   0.99540   0.01267  Uiso   1.00
C8     C     0.69330   0.90030   0.94340   0.01267  Uiso   1.00
C9     C     0.66690   0.03230   0.92960   0.01267  Uiso   1.00
C10    C     0.80350   0.10580   0.33490   0.01267  Uiso   1.00
C11    C     0.71310   0.00220   0.37970   0.01267  Uiso   1.00
C12    C     0.76120   0.88330   0.40570   0.01267  Uiso   1.00
C13    C     0.09980   0.07860   0.78660   0.01267  Uiso   1.00
C14    C     0.07780   0.07580   0.91800   0.01267  Uiso   1.00
C15    C     0.19830   0.22940   0.04050   0.01267  Uiso   1.00
C16    C     0.69370   0.39030   0.49540   0.01267  Uiso   1.00
C17    C     0.54310   0.25010   0.44340   0.01267  Uiso   1.00
C18    C     0.39730   0.26270   0.42960   0.01267  Uiso   1.00
O1     O     0.74360   0.43510   0.89110   0.01267  Uiso   1.00
O2     O     0.59290   0.51840   0.73690   0.01267  Uiso   1.00
O3     O     0.05180   0.55180   0.95180   0.01267  Uiso   1.00
O4     O     0.10900   0.72870   0.87110   0.01267  Uiso   1.00
O5     O     0.25070   0.59030   0.25460   0.01267  Uiso   1.00
O6     O     0.06420   0.65610   0.22210   0.01267  Uiso   1.00
O7     O     0.25010   0.91600   0.57330   0.01267  Uiso   1.00
O8     O     0.34140   0.75460   0.60440   0.01267  Uiso   1.00
O9     O     0.86980   0.25870   0.78190   0.01267  Uiso   1.00
O10    O     0.46040   0.76060   0.93780   0.01267  Uiso   1.00
O11    O     0.68450   0.76030   0.08960   0.01267  Uiso   1.00
O12    O     0.52530   0.01820   0.87630   0.01267  Uiso   1.00
O13    O     0.78170   0.14370   0.96200   0.01267  Uiso   1.00
O14    O     0.39280   0.00910   0.04950   0.01267  Uiso   1.00
O15    O     0.95600   0.14750   0.39110   0.01267  Uiso   1.00
O16    O     0.71850   0.14400   0.23690   0.01267  Uiso   1.00
O17    O     0.90000   0.90000   0.45180   0.01267  Uiso   1.00
O18    O     0.64240   0.76210   0.37110   0.01267  Uiso   1.00
O19    O     0.16430   0.00390   0.75460   0.01267  Uiso   1.00
O20    O     0.06600   0.15790   0.72210   0.01267  Uiso   1.00
O21    O     0.15730   0.32320   0.07330   0.01267  Uiso   1.00
O22    O     0.34980   0.26300   0.10440   0.01267  Uiso   1.00
O23    O     0.02320   0.91210   0.28190   0.01267  Uiso   1.00
O24    O     0.67720   0.47740   0.43780   0.01267  Uiso   1.00
O25    O     0.82930   0.40510   0.58960   0.01267  Uiso   1.00
O26    O     0.35810   0.35100   0.37630   0.01267  Uiso   1.00
O27    O     0.31830   0.18030   0.46200   0.01267  Uiso   1.00
O28    O     0.54040   0.65670   0.54950   0.01267  Uiso   1.00
