data_AMALND_clean
_audit_creation_date              2014-07-02
_audit_creation_method            'Materials Studio'
_symmetry_space_group_name_H-M    'P1'
_symmetry_Int_Tables_number       1
_symmetry_cell_setting            triclinic
loop_
_symmetry_equiv_pos_as_xyz
  x,y,z
_cell_length_a                    11.2580
_cell_length_b                    12.6020
_cell_length_c                    14.6890
_cell_angle_alpha                 90.0000
_cell_angle_beta                  90.0000
_cell_angle_gamma                 90.0000
loop_
_atom_site_label
_atom_site_type_symbol
_atom_site_fract_x
_atom_site_fract_y
_atom_site_fract_z
_atom_site_U_iso_or_equiv
_atom_site_adp_type
_atom_site_occupancy
Nd1    Nd    0.85083   0.88657   0.99259   0.01267  Uiso   1.00
Nd2    Nd    0.64917   0.61343   0.49259   0.01267  Uiso   1.00
Nd3    Nd    0.14917   0.88657   0.50741   0.01267  Uiso   1.00
Nd4    Nd    0.35083   0.61343   0.00741   0.01267  Uiso   1.00
Nd5    Nd    0.14917   0.11343   0.00741   0.01267  Uiso   1.00
Nd6    Nd    0.35083   0.38657   0.50741   0.01267  Uiso   1.00
Nd7    Nd    0.85083   0.11343   0.49259   0.01267  Uiso   1.00
Nd8    Nd    0.64917   0.38657   0.99259   0.01267  Uiso   1.00
C1     C     0.96750   0.98690   0.83250   0.01267  Uiso   1.00
C2     C     0.69680   0.11600   0.92360   0.01267  Uiso   1.00
C3     C     0.61450   0.04940   0.86380   0.01267  Uiso   1.00
C4     C     0.57050   0.94540   0.90340   0.01267  Uiso   1.00
C5     C     0.53250   0.51310   0.33250   0.01267  Uiso   1.00
C6     C     0.80320   0.38400   0.42360   0.01267  Uiso   1.00
C7     C     0.88550   0.45060   0.36380   0.01267  Uiso   1.00
C8     C     0.92950   0.55460   0.40340   0.01267  Uiso   1.00
C9     C     0.03250   0.98690   0.66750   0.01267  Uiso   1.00
C10    C     0.30320   0.11600   0.57640   0.01267  Uiso   1.00
C11    C     0.38550   0.04940   0.63620   0.01267  Uiso   1.00
C12    C     0.42950   0.94540   0.59660   0.01267  Uiso   1.00
C13    C     0.46750   0.51310   0.16750   0.01267  Uiso   1.00
C14    C     0.19680   0.38400   0.07640   0.01267  Uiso   1.00
C15    C     0.11450   0.45060   0.13620   0.01267  Uiso   1.00
C16    C     0.07050   0.55460   0.09660   0.01267  Uiso   1.00
C17    C     0.03250   0.01310   0.16750   0.01267  Uiso   1.00
C18    C     0.30320   0.88400   0.07640   0.01267  Uiso   1.00
C19    C     0.38550   0.95060   0.13620   0.01267  Uiso   1.00
C20    C     0.42950   0.05460   0.09660   0.01267  Uiso   1.00
C21    C     0.46750   0.48690   0.66750   0.01267  Uiso   1.00
C22    C     0.19680   0.61600   0.57640   0.01267  Uiso   1.00
C23    C     0.11450   0.54940   0.63620   0.01267  Uiso   1.00
C24    C     0.07050   0.44540   0.59660   0.01267  Uiso   1.00
C25    C     0.96750   0.01310   0.33250   0.01267  Uiso   1.00
C26    C     0.69680   0.88400   0.42360   0.01267  Uiso   1.00
C27    C     0.61450   0.95060   0.36380   0.01267  Uiso   1.00
C28    C     0.57050   0.05460   0.40340   0.01267  Uiso   1.00
C29    C     0.53250   0.48690   0.83250   0.01267  Uiso   1.00
C30    C     0.80320   0.61600   0.92360   0.01267  Uiso   1.00
C31    C     0.88550   0.54940   0.86380   0.01267  Uiso   1.00
C32    C     0.92950   0.44540   0.90340   0.01267  Uiso   1.00
C33    C     0.00000   0.05270   0.75000   0.01267  Uiso   1.00
C34    C     0.50000   0.44730   0.25000   0.01267  Uiso   1.00
C35    C     0.00000   0.94730   0.25000   0.01267  Uiso   1.00
C36    C     0.50000   0.55270   0.75000   0.01267  Uiso   1.00
O1     O     0.89620   0.91500   0.82500   0.01267  Uiso   1.00
O2     O     0.01670   0.00880   0.90890   0.01267  Uiso   1.00
O3     O     0.78010   0.06970   0.96930   0.01267  Uiso   1.00
O4     O     0.68530   0.21550   0.92480   0.01267  Uiso   1.00
O5     O     0.64550   0.88380   0.93960   0.01267  Uiso   1.00
O6     O     0.46570   0.92890   0.90480   0.01267  Uiso   1.00
O7     O     0.60380   0.58500   0.32500   0.01267  Uiso   1.00
O8     O     0.48330   0.49120   0.40890   0.01267  Uiso   1.00
O9     O     0.71990   0.43030   0.46930   0.01267  Uiso   1.00
O10    O     0.81470   0.28450   0.42480   0.01267  Uiso   1.00
O11    O     0.85450   0.61620   0.43960   0.01267  Uiso   1.00
O12    O     0.03430   0.57110   0.40480   0.01267  Uiso   1.00
O13    O     0.10380   0.91500   0.67500   0.01267  Uiso   1.00
O14    O     0.98330   0.00880   0.59110   0.01267  Uiso   1.00
O15    O     0.21990   0.06970   0.53070   0.01267  Uiso   1.00
O16    O     0.31470   0.21550   0.57520   0.01267  Uiso   1.00
O17    O     0.35450   0.88380   0.56040   0.01267  Uiso   1.00
O18    O     0.53430   0.92890   0.59520   0.01267  Uiso   1.00
O19    O     0.39620   0.58500   0.17500   0.01267  Uiso   1.00
O20    O     0.51670   0.49120   0.09110   0.01267  Uiso   1.00
O21    O     0.28010   0.43030   0.03070   0.01267  Uiso   1.00
O22    O     0.18530   0.28450   0.07520   0.01267  Uiso   1.00
O23    O     0.14550   0.61620   0.06040   0.01267  Uiso   1.00
O24    O     0.96570   0.57110   0.09520   0.01267  Uiso   1.00
O25    O     0.10380   0.08500   0.17500   0.01267  Uiso   1.00
O26    O     0.98330   0.99120   0.09110   0.01267  Uiso   1.00
O27    O     0.21990   0.93030   0.03070   0.01267  Uiso   1.00
O28    O     0.31470   0.78450   0.07520   0.01267  Uiso   1.00
O29    O     0.35450   0.11620   0.06040   0.01267  Uiso   1.00
O30    O     0.53430   0.07110   0.09520   0.01267  Uiso   1.00
O31    O     0.39620   0.41500   0.67500   0.01267  Uiso   1.00
O32    O     0.51670   0.50880   0.59110   0.01267  Uiso   1.00
O33    O     0.28010   0.56970   0.53070   0.01267  Uiso   1.00
O34    O     0.18530   0.71550   0.57520   0.01267  Uiso   1.00
O35    O     0.14550   0.38380   0.56040   0.01267  Uiso   1.00
O36    O     0.96570   0.42890   0.59520   0.01267  Uiso   1.00
O37    O     0.89620   0.08500   0.32500   0.01267  Uiso   1.00
O38    O     0.01670   0.99120   0.40890   0.01267  Uiso   1.00
O39    O     0.78010   0.93030   0.46930   0.01267  Uiso   1.00
O40    O     0.68530   0.78450   0.42480   0.01267  Uiso   1.00
O41    O     0.64550   0.11620   0.43960   0.01267  Uiso   1.00
O42    O     0.46570   0.07110   0.40480   0.01267  Uiso   1.00
O43    O     0.60380   0.41500   0.82500   0.01267  Uiso   1.00
O44    O     0.48330   0.50880   0.90890   0.01267  Uiso   1.00
O45    O     0.71990   0.56970   0.96930   0.01267  Uiso   1.00
O46    O     0.81470   0.71550   0.92480   0.01267  Uiso   1.00
O47    O     0.85450   0.38380   0.93960   0.01267  Uiso   1.00
O48    O     0.03430   0.42890   0.90480   0.01267  Uiso   1.00
