data_AMEJIM_charged
_audit_creation_date              2014-07-02
_audit_creation_method            'Materials Studio'
_symmetry_space_group_name_H-M    'P1'
_symmetry_Int_Tables_number       1
_symmetry_cell_setting            triclinic
loop_
_symmetry_equiv_pos_as_xyz
  x,y,z
_cell_length_a                    12.5630
_cell_length_b                    12.5630
_cell_length_c                    12.5630
_cell_angle_alpha                 95.1163
_cell_angle_beta                  95.1163
_cell_angle_gamma                 95.1163
loop_
_atom_site_label
_atom_site_type_symbol
_atom_site_fract_x
_atom_site_fract_y
_atom_site_fract_z
_atom_site_U_iso_or_equiv
_atom_site_adp_type
_atom_site_occupancy
Fe1    Fe    0.00000   0.00000   0.00000   0.01267  Uiso   1.00
Cu1    Cu    0.00803   0.95708   0.60716   0.01267  Uiso   1.00
Cu2    Cu    0.60716   0.00803   0.95708   0.01267  Uiso   1.00
Cu3    Cu    0.95708   0.60716   0.00803   0.01267  Uiso   1.00
Cu4    Cu    0.99197   0.04292   0.39284   0.01267  Uiso   1.00
Cu5    Cu    0.39284   0.99197   0.04292   0.01267  Uiso   1.00
Cu6    Cu    0.04292   0.39284   0.99197   0.01267  Uiso   1.00
H1     H     0.03620   0.67010   0.66320   0.01267  Uiso   1.00
H2     H     0.98890   0.75870   0.74010   0.01267  Uiso   1.00
H3     H     0.85270   0.67020   0.61440   0.01267  Uiso   1.00
H4     H     0.91790   0.70750   0.51790   0.01267  Uiso   1.00
H5     H     0.08360   0.72270   0.49690   0.01267  Uiso   1.00
H6     H     0.20270   0.76170   0.55060   0.01267  Uiso   1.00
H7     H     0.19910   0.92750   0.48740   0.01267  Uiso   1.00
H8     H     0.14760   0.84460   0.38720   0.01267  Uiso   1.00
H9     H     0.13920   0.86180   0.79420   0.01267  Uiso   1.00
H10    H     0.20760   0.77720   0.73510   0.01267  Uiso   1.00
H11    H     0.29480   0.91290   0.65020   0.01267  Uiso   1.00
H12    H     0.30930   0.94420   0.77750   0.01267  Uiso   1.00
H13    H     0.78020   0.83770   0.59740   0.01267  Uiso   1.00
H14    H     0.23660   0.06000   0.65040   0.01267  Uiso   1.00
H15    H     0.66320   0.03620   0.67010   0.01267  Uiso   1.00
H16    H     0.74010   0.98890   0.75870   0.01267  Uiso   1.00
H17    H     0.61440   0.85270   0.67020   0.01267  Uiso   1.00
H18    H     0.51790   0.91790   0.70750   0.01267  Uiso   1.00
H19    H     0.49690   0.08360   0.72270   0.01267  Uiso   1.00
H20    H     0.55060   0.20270   0.76170   0.01267  Uiso   1.00
H21    H     0.48740   0.19910   0.92750   0.01267  Uiso   1.00
H22    H     0.38720   0.14760   0.84460   0.01267  Uiso   1.00
H23    H     0.79420   0.13920   0.86180   0.01267  Uiso   1.00
H24    H     0.73510   0.20760   0.77720   0.01267  Uiso   1.00
H25    H     0.65020   0.29480   0.91290   0.01267  Uiso   1.00
H26    H     0.77750   0.30930   0.94420   0.01267  Uiso   1.00
H27    H     0.59740   0.78020   0.83770   0.01267  Uiso   1.00
H28    H     0.65040   0.23660   0.06000   0.01267  Uiso   1.00
H29    H     0.67010   0.66320   0.03620   0.01267  Uiso   1.00
H30    H     0.75870   0.74010   0.98890   0.01267  Uiso   1.00
H31    H     0.67020   0.61440   0.85270   0.01267  Uiso   1.00
H32    H     0.70750   0.51790   0.91790   0.01267  Uiso   1.00
H33    H     0.72270   0.49690   0.08360   0.01267  Uiso   1.00
H34    H     0.76170   0.55060   0.20270   0.01267  Uiso   1.00
H35    H     0.92750   0.48740   0.19910   0.01267  Uiso   1.00
H36    H     0.84460   0.38720   0.14760   0.01267  Uiso   1.00
H37    H     0.86180   0.79420   0.13920   0.01267  Uiso   1.00
H38    H     0.77720   0.73510   0.20760   0.01267  Uiso   1.00
H39    H     0.91290   0.65020   0.29480   0.01267  Uiso   1.00
H40    H     0.94420   0.77750   0.30930   0.01267  Uiso   1.00
H41    H     0.83770   0.59740   0.78020   0.01267  Uiso   1.00
H42    H     0.06000   0.65040   0.23660   0.01267  Uiso   1.00
H43    H     0.96380   0.32990   0.33680   0.01267  Uiso   1.00
H44    H     0.01110   0.24130   0.25990   0.01267  Uiso   1.00
H45    H     0.14730   0.32980   0.38560   0.01267  Uiso   1.00
H46    H     0.08210   0.29250   0.48210   0.01267  Uiso   1.00
H47    H     0.91640   0.27730   0.50310   0.01267  Uiso   1.00
H48    H     0.79730   0.23830   0.44940   0.01267  Uiso   1.00
H49    H     0.80090   0.07250   0.51260   0.01267  Uiso   1.00
H50    H     0.85240   0.15540   0.61280   0.01267  Uiso   1.00
H51    H     0.86080   0.13820   0.20580   0.01267  Uiso   1.00
H52    H     0.79240   0.22280   0.26490   0.01267  Uiso   1.00
H53    H     0.70520   0.08710   0.34980   0.01267  Uiso   1.00
H54    H     0.69070   0.05580   0.22250   0.01267  Uiso   1.00
H55    H     0.21980   0.16230   0.40260   0.01267  Uiso   1.00
H56    H     0.76340   0.94000   0.34960   0.01267  Uiso   1.00
H57    H     0.33680   0.96380   0.32990   0.01267  Uiso   1.00
H58    H     0.25990   0.01110   0.24130   0.01267  Uiso   1.00
H59    H     0.38560   0.14730   0.32980   0.01267  Uiso   1.00
H60    H     0.48210   0.08210   0.29250   0.01267  Uiso   1.00
H61    H     0.50310   0.91640   0.27730   0.01267  Uiso   1.00
H62    H     0.44940   0.79730   0.23830   0.01267  Uiso   1.00
H63    H     0.51260   0.80090   0.07250   0.01267  Uiso   1.00
H64    H     0.61280   0.85240   0.15540   0.01267  Uiso   1.00
H65    H     0.20580   0.86080   0.13820   0.01267  Uiso   1.00
H66    H     0.26490   0.79240   0.22280   0.01267  Uiso   1.00
H67    H     0.34980   0.70520   0.08710   0.01267  Uiso   1.00
H68    H     0.22250   0.69070   0.05580   0.01267  Uiso   1.00
H69    H     0.40260   0.21980   0.16230   0.01267  Uiso   1.00
H70    H     0.34960   0.76340   0.94000   0.01267  Uiso   1.00
H71    H     0.32990   0.33680   0.96380   0.01267  Uiso   1.00
H72    H     0.24130   0.25990   0.01110   0.01267  Uiso   1.00
H73    H     0.32980   0.38560   0.14730   0.01267  Uiso   1.00
H74    H     0.29250   0.48210   0.08210   0.01267  Uiso   1.00
H75    H     0.27730   0.50310   0.91640   0.01267  Uiso   1.00
H76    H     0.23830   0.44940   0.79730   0.01267  Uiso   1.00
H77    H     0.07250   0.51260   0.80090   0.01267  Uiso   1.00
H78    H     0.15540   0.61280   0.85240   0.01267  Uiso   1.00
H79    H     0.13820   0.20580   0.86080   0.01267  Uiso   1.00
H80    H     0.22280   0.26490   0.79240   0.01267  Uiso   1.00
H81    H     0.08710   0.34980   0.70520   0.01267  Uiso   1.00
H82    H     0.05580   0.22250   0.69070   0.01267  Uiso   1.00
H83    H     0.16230   0.40260   0.21980   0.01267  Uiso   1.00
H84    H     0.94000   0.34960   0.76340   0.01267  Uiso   1.00
C1     C     0.98575   0.00051   0.84719   0.01267  Uiso   1.00
C2     C     0.00520   0.73990   0.66550   0.01267  Uiso   1.00
C3     C     0.90280   0.72790   0.59270   0.01267  Uiso   1.00
C4     C     0.13040   0.78500   0.53390   0.01267  Uiso   1.00
C5     C     0.13760   0.87400   0.46110   0.01267  Uiso   1.00
C6     C     0.17220   0.84380   0.72700   0.01267  Uiso   1.00
C7     C     0.25630   0.93300   0.71330   0.01267  Uiso   1.00
C8     C     0.84719   0.98575   0.00051   0.01267  Uiso   1.00
C9     C     0.66550   0.00520   0.73990   0.01267  Uiso   1.00
C10    C     0.59270   0.90280   0.72790   0.01267  Uiso   1.00
C11    C     0.53390   0.13040   0.78500   0.01267  Uiso   1.00
C12    C     0.46110   0.13760   0.87400   0.01267  Uiso   1.00
C13    C     0.72700   0.17220   0.84380   0.01267  Uiso   1.00
C14    C     0.71330   0.25630   0.93300   0.01267  Uiso   1.00
C15    C     0.00051   0.84719   0.98575   0.01267  Uiso   1.00
C16    C     0.73990   0.66550   0.00520   0.01267  Uiso   1.00
C17    C     0.72790   0.59270   0.90280   0.01267  Uiso   1.00
C18    C     0.78500   0.53390   0.13040   0.01267  Uiso   1.00
C19    C     0.87400   0.46110   0.13760   0.01267  Uiso   1.00
C20    C     0.84380   0.72700   0.17220   0.01267  Uiso   1.00
C21    C     0.93300   0.71330   0.25630   0.01267  Uiso   1.00
C22    C     0.01425   0.99949   0.15281   0.01267  Uiso   1.00
C23    C     0.99480   0.26010   0.33450   0.01267  Uiso   1.00
C24    C     0.09720   0.27210   0.40730   0.01267  Uiso   1.00
C25    C     0.86960   0.21500   0.46610   0.01267  Uiso   1.00
C26    C     0.86240   0.12600   0.53890   0.01267  Uiso   1.00
C27    C     0.82780   0.15620   0.27300   0.01267  Uiso   1.00
C28    C     0.74370   0.06700   0.28670   0.01267  Uiso   1.00
C29    C     0.15281   0.01425   0.99949   0.01267  Uiso   1.00
C30    C     0.33450   0.99480   0.26010   0.01267  Uiso   1.00
C31    C     0.40730   0.09720   0.27210   0.01267  Uiso   1.00
C32    C     0.46610   0.86960   0.21500   0.01267  Uiso   1.00
C33    C     0.53890   0.86240   0.12600   0.01267  Uiso   1.00
C34    C     0.27300   0.82780   0.15620   0.01267  Uiso   1.00
C35    C     0.28670   0.74370   0.06700   0.01267  Uiso   1.00
C36    C     0.99949   0.15281   0.01425   0.01267  Uiso   1.00
C37    C     0.26010   0.33450   0.99480   0.01267  Uiso   1.00
C38    C     0.27210   0.40730   0.09720   0.01267  Uiso   1.00
C39    C     0.21500   0.46610   0.86960   0.01267  Uiso   1.00
C40    C     0.12600   0.53890   0.86240   0.01267  Uiso   1.00
C41    C     0.15620   0.27300   0.82780   0.01267  Uiso   1.00
C42    C     0.06700   0.28670   0.74370   0.01267  Uiso   1.00
N1     N     0.98086   0.99860   0.75487   0.01267  Uiso   1.00
N2     N     0.08568   0.82238   0.63688   0.01267  Uiso   1.00
N3     N     0.75487   0.98086   0.99860   0.01267  Uiso   1.00
N4     N     0.63688   0.08568   0.82238   0.01267  Uiso   1.00
N5     N     0.99860   0.75487   0.98086   0.01267  Uiso   1.00
N6     N     0.82238   0.63688   0.08568   0.01267  Uiso   1.00
N7     N     0.01914   0.00140   0.24513   0.01267  Uiso   1.00
N8     N     0.91432   0.17762   0.36312   0.01267  Uiso   1.00
N9     N     0.24513   0.01914   0.00140   0.01267  Uiso   1.00
N10    N     0.36312   0.91432   0.17762   0.01267  Uiso   1.00
N11    N     0.00140   0.24513   0.01914   0.01267  Uiso   1.00
N12    N     0.17762   0.36312   0.91432   0.01267  Uiso   1.00
O1     O     0.04049   0.92195   0.46199   0.01267  Uiso   1.00
O2     O     0.85411   0.82648   0.59774   0.01267  Uiso   1.00
O3     O     0.20854   0.02898   0.69901   0.01267  Uiso   1.00
O4     O     0.46199   0.04049   0.92195   0.01267  Uiso   1.00
O5     O     0.59774   0.85411   0.82648   0.01267  Uiso   1.00
O6     O     0.69901   0.20854   0.02898   0.01267  Uiso   1.00
O7     O     0.92195   0.46199   0.04049   0.01267  Uiso   1.00
O8     O     0.82648   0.59774   0.85411   0.01267  Uiso   1.00
O9     O     0.02898   0.69901   0.20854   0.01267  Uiso   1.00
O10    O     0.95951   0.07805   0.53801   0.01267  Uiso   1.00
O11    O     0.14589   0.17352   0.40226   0.01267  Uiso   1.00
O12    O     0.79146   0.97102   0.30099   0.01267  Uiso   1.00
O13    O     0.53801   0.95951   0.07805   0.01267  Uiso   1.00
O14    O     0.40226   0.14589   0.17352   0.01267  Uiso   1.00
O15    O     0.30099   0.79146   0.97102   0.01267  Uiso   1.00
O16    O     0.07805   0.53801   0.95951   0.01267  Uiso   1.00
O17    O     0.17352   0.40226   0.14589   0.01267  Uiso   1.00
O18    O     0.97102   0.30099   0.79146   0.01267  Uiso   1.00
