data_AMUCOB_clean
_audit_creation_date              2014-07-02
_audit_creation_method            'Materials Studio'
_symmetry_space_group_name_H-M    'P1'
_symmetry_Int_Tables_number       1
_symmetry_cell_setting            triclinic
loop_
_symmetry_equiv_pos_as_xyz
  x,y,z
_cell_length_a                    8.6370
_cell_length_b                    12.2700
_cell_length_c                    12.2700
_cell_angle_alpha                 65.3283
_cell_angle_beta                  76.4298
_cell_angle_gamma                 103.5700
loop_
_atom_site_label
_atom_site_type_symbol
_atom_site_fract_x
_atom_site_fract_y
_atom_site_fract_z
_atom_site_U_iso_or_equiv
_atom_site_adp_type
_atom_site_occupancy
Ca1    Ca    0.01359   0.62167   0.57567   0.01267  Uiso   1.00
Ca2    Ca    0.58926   0.57567   0.80266   0.01267  Uiso   1.00
Ca3    Ca    0.39192   0.80266   0.62167   0.01267  Uiso   1.00
Ca4    Ca    0.98641   0.37833   0.42433   0.01267  Uiso   1.00
Ca5    Ca    0.41074   0.42433   0.19734   0.01267  Uiso   1.00
Ca6    Ca    0.60808   0.19734   0.37833   0.01267  Uiso   1.00
H1     H     0.96340   0.90080   0.81610   0.01267  Uiso   1.00
H2     H     0.78530   0.78940   0.86760   0.01267  Uiso   1.00
H3     H     0.95380   0.00120   0.60930   0.01267  Uiso   1.00
H4     H     0.78670   0.88560   0.65090   0.01267  Uiso   1.00
H5     H     0.64060   0.94740   0.79610   0.01267  Uiso   1.00
H6     H     0.80610   0.07400   0.72800   0.01267  Uiso   1.00
H7     H     0.77950   0.81610   0.28310   0.01267  Uiso   1.00
H8     H     0.65290   0.86760   0.34300   0.01267  Uiso   1.00
H9     H     0.56310   0.60930   0.38950   0.01267  Uiso   1.00
H10    H     0.43760   0.65090   0.46350   0.01267  Uiso   1.00
H11    H     0.43670   0.79610   0.25650   0.01267  Uiso   1.00
H12    H     0.53410   0.72800   0.19800   0.01267  Uiso   1.00
H13    H     0.06260   0.28310   0.90080   0.01267  Uiso   1.00
H14    H     0.99590   0.34300   0.78940   0.01267  Uiso   1.00
H15    H     0.95260   0.38950   0.00120   0.01267  Uiso   1.00
H16    H     0.90110   0.46350   0.88560   0.01267  Uiso   1.00
H17    H     0.69320   0.25650   0.94740   0.01267  Uiso   1.00
H18    H     0.73210   0.19800   0.07400   0.01267  Uiso   1.00
H19    H     0.03660   0.09920   0.18390   0.01267  Uiso   1.00
H20    H     0.21470   0.21060   0.13240   0.01267  Uiso   1.00
H21    H     0.04620   0.99880   0.39070   0.01267  Uiso   1.00
H22    H     0.21330   0.11440   0.34910   0.01267  Uiso   1.00
H23    H     0.35940   0.05260   0.20390   0.01267  Uiso   1.00
H24    H     0.19390   0.92600   0.27200   0.01267  Uiso   1.00
H25    H     0.22050   0.18390   0.71690   0.01267  Uiso   1.00
H26    H     0.34710   0.13240   0.65700   0.01267  Uiso   1.00
H27    H     0.43690   0.39070   0.61050   0.01267  Uiso   1.00
H28    H     0.56240   0.34910   0.53650   0.01267  Uiso   1.00
H29    H     0.56330   0.20390   0.74350   0.01267  Uiso   1.00
H30    H     0.46590   0.27200   0.80200   0.01267  Uiso   1.00
H31    H     0.93740   0.71690   0.09920   0.01267  Uiso   1.00
H32    H     0.00410   0.65700   0.21060   0.01267  Uiso   1.00
H33    H     0.04740   0.61050   0.99880   0.01267  Uiso   1.00
H34    H     0.09890   0.53650   0.11440   0.01267  Uiso   1.00
H35    H     0.30680   0.74350   0.05260   0.01267  Uiso   1.00
H36    H     0.26790   0.80200   0.92600   0.01267  Uiso   1.00
C1     C     0.98080   0.77380   0.75060   0.01267  Uiso   1.00
C2     C     0.89030   0.84890   0.79240   0.01267  Uiso   1.00
C3     C     0.84720   0.93760   0.68070   0.01267  Uiso   1.00
C4     C     0.73840   0.00820   0.71560   0.01267  Uiso   1.00
C5     C     0.67670   0.06950   0.60920   0.01267  Uiso   1.00
C6     C     0.73140   0.75060   0.47560   0.01267  Uiso   1.00
C7     C     0.68270   0.79240   0.35870   0.01267  Uiso   1.00
C8     C     0.52790   0.68070   0.38170   0.01267  Uiso   1.00
C9     C     0.45400   0.71560   0.27620   0.01267  Uiso   1.00
C10    C     0.28590   0.60920   0.32130   0.01267  Uiso   1.00
C11    C     0.20700   0.47560   0.77380   0.01267  Uiso   1.00
C12    C     0.04140   0.35870   0.84890   0.01267  Uiso   1.00
C13    C     0.90960   0.38170   0.93760   0.01267  Uiso   1.00
C14    C     0.73020   0.27620   0.00820   0.01267  Uiso   1.00
C15    C     0.60720   0.32130   0.06950   0.01267  Uiso   1.00
C16    C     0.01920   0.22620   0.24940   0.01267  Uiso   1.00
C17    C     0.10970   0.15110   0.20760   0.01267  Uiso   1.00
C18    C     0.15280   0.06240   0.31930   0.01267  Uiso   1.00
C19    C     0.26160   0.99180   0.28440   0.01267  Uiso   1.00
C20    C     0.32330   0.93050   0.39080   0.01267  Uiso   1.00
C21    C     0.26860   0.24940   0.52440   0.01267  Uiso   1.00
C22    C     0.31730   0.20760   0.64130   0.01267  Uiso   1.00
C23    C     0.47210   0.31930   0.61830   0.01267  Uiso   1.00
C24    C     0.54600   0.28440   0.72380   0.01267  Uiso   1.00
C25    C     0.71410   0.39080   0.67870   0.01267  Uiso   1.00
C26    C     0.79300   0.52440   0.22620   0.01267  Uiso   1.00
C27    C     0.95860   0.64130   0.15110   0.01267  Uiso   1.00
C28    C     0.09040   0.61830   0.06240   0.01267  Uiso   1.00
C29    C     0.26980   0.72380   0.99180   0.01267  Uiso   1.00
C30    C     0.39280   0.67870   0.93050   0.01267  Uiso   1.00
O1     O     0.89390   0.68680   0.73410   0.01267  Uiso   1.00
O2     O     0.13740   0.80770   0.72690   0.01267  Uiso   1.00
O3     O     0.55590   0.00230   0.59570   0.01267  Uiso   1.00
O4     O     0.74880   0.18880   0.53260   0.01267  Uiso   1.00
O5     O     0.62800   0.73410   0.57910   0.01267  Uiso   1.00
O6     O     0.86430   0.72690   0.46540   0.01267  Uiso   1.00
O7     O     0.15160   0.59570   0.40200   0.01267  Uiso   1.00
O8     O     0.28140   0.53260   0.27860   0.01267  Uiso   1.00
O9     O     0.20710   0.57910   0.68680   0.01267  Uiso   1.00
O10    O     0.32970   0.46540   0.80770   0.01267  Uiso   1.00
O11    O     0.55360   0.40200   0.00230   0.01267  Uiso   1.00
O12    O     0.56000   0.27860   0.18880   0.01267  Uiso   1.00
O13    O     0.10610   0.31320   0.26590   0.01267  Uiso   1.00
O14    O     0.86260   0.19230   0.27310   0.01267  Uiso   1.00
O15    O     0.44410   0.99770   0.40430   0.01267  Uiso   1.00
O16    O     0.25120   0.81120   0.46740   0.01267  Uiso   1.00
O17    O     0.37200   0.26590   0.42090   0.01267  Uiso   1.00
O18    O     0.13570   0.27310   0.53460   0.01267  Uiso   1.00
O19    O     0.84840   0.40430   0.59800   0.01267  Uiso   1.00
O20    O     0.71860   0.46740   0.72140   0.01267  Uiso   1.00
O21    O     0.79290   0.42090   0.31320   0.01267  Uiso   1.00
O22    O     0.67030   0.53460   0.19230   0.01267  Uiso   1.00
O23    O     0.44640   0.59800   0.99770   0.01267  Uiso   1.00
O24    O     0.44000   0.72140   0.81120   0.01267  Uiso   1.00
