data_ANONAT_clean
_audit_creation_date              2014-07-15
_audit_creation_method            'Materials Studio'
_symmetry_space_group_name_H-M    'P1'
_symmetry_Int_Tables_number       1
_symmetry_cell_setting            triclinic
loop_
_symmetry_equiv_pos_as_xyz
  x,y,z
_cell_length_a                    10.9220
_cell_length_b                    14.9810
_cell_length_c                    20.4118
_cell_angle_alpha                 111.5290
_cell_angle_beta                  105.5180
_cell_angle_gamma                 90.0000
loop_
_atom_site_label
_atom_site_type_symbol
_atom_site_fract_x
_atom_site_fract_y
_atom_site_fract_z
_atom_site_U_iso_or_equiv
_atom_site_adp_type
_atom_site_occupancy
Cu1    Cu    0.55905   0.47610   0.94708   0.01267  Uiso   1.00
Cu2    Cu    0.11192   0.02916   0.05296   0.01267  Uiso   1.00
Cu3    Cu    0.88807   0.97654   0.94703   0.01267  Uiso   1.00
Cu4    Cu    0.44094   0.52957   0.05292   0.01267  Uiso   1.00
H1     H     0.73531   0.47243   0.21570   0.01267  Uiso   1.00
H2     H     0.71717   0.33514   0.43216   0.01267  Uiso   1.00
H3     H     0.83241   0.47912   0.95413   0.01267  Uiso   1.00
H4     H     0.48415   0.39437   0.78368   0.01267  Uiso   1.00
H5     H     0.03151   0.39340   0.90438   0.01267  Uiso   1.00
H6     H     0.03904   0.41400   0.82386   0.01267  Uiso   1.00
H7     H     0.03136   0.51430   0.90473   0.01267  Uiso   1.00
H10    H     0.64604   0.31755   0.63128   0.01267  Uiso   1.00
H11    H     0.01912   0.03480   0.78607   0.01267  Uiso   1.00
H12    H     0.93953   0.25169   0.56672   0.01267  Uiso   1.00
H17    H     0.62731   0.98996   0.09584   0.01267  Uiso   1.00
H18    H     0.36578   0.23599   0.34649   0.01267  Uiso   1.00
H19    H     0.36498   0.11526   0.34651   0.01267  Uiso   1.00
H21    H     0.97833   0.24774   0.21566   0.01267  Uiso   1.00
H22    H     0.21678   0.60397   0.43398   0.01267  Uiso   1.00
H25    H     0.37350   0.89522   0.90445   0.01267  Uiso   1.00
H30    H     0.48559   0.81929   0.63113   0.01267  Uiso   1.00
H31    H     0.26679   0.25702   0.78605   0.01267  Uiso   1.00
H32    H     0.12718   0.82075   0.56678   0.01267  Uiso   1.00
H33    H     0.16757   0.52616   0.04589   0.01267  Uiso   1.00
H37    H     0.96828   0.61164   0.09555   0.01267  Uiso   1.00
H38    H     0.48033   0.61667   0.34645   0.01267  Uiso   1.00
H39    H     0.48110   0.73737   0.34638   0.01267  Uiso   1.00
H41    H     0.26466   0.53324   0.78432   0.01267  Uiso   1.00
H42    H     0.28284   0.67055   0.56785   0.01267  Uiso   1.00
H44    H     0.51587   0.61170   0.21631   0.01267  Uiso   1.00
H45    H     0.96887   0.49085   0.09542   0.01267  Uiso   1.00
H46    H     0.96100   0.59125   0.17619   0.01267  Uiso   1.00
H50    H     0.35403   0.68866   0.36874   0.01267  Uiso   1.00
H51    H     0.98086   0.97089   0.21391   0.01267  Uiso   1.00
H52    H     0.06046   0.75397   0.43325   0.01267  Uiso   1.00
H53    H     0.62168   0.98007   0.95397   0.01267  Uiso   1.00
H54    H     0.79976   0.89501   0.78364   0.01267  Uiso   1.00
H56    H     0.28488   0.91462   0.82358   0.01267  Uiso   1.00
H57    H     0.37269   0.01579   0.90415   0.01267  Uiso   1.00
H58    H     0.63421   0.76965   0.65352   0.01267  Uiso   1.00
H59    H     0.63501   0.89037   0.65348   0.01267  Uiso   1.00
H61    H     0.02170   0.75797   0.78434   0.01267  Uiso   1.00
H62    H     0.78322   0.40173   0.56603   0.01267  Uiso   1.00
H63    H     0.37832   0.02568   0.04603   0.01267  Uiso   1.00
H64    H     0.20023   0.11065   0.21636   0.01267  Uiso   1.00
H65    H     0.62649   0.11055   0.09556   0.01267  Uiso   1.00
H66    H     0.71511   0.09112   0.17643   0.01267  Uiso   1.00
H70    H     0.51439   0.18635   0.36887   0.01267  Uiso   1.00
H71    H     0.73323   0.74864   0.21393   0.01267  Uiso   1.00
H72    H     0.87281   0.18491   0.43319   0.01267  Uiso   1.00
H78    H     0.51995   0.38973   0.65368   0.01267  Uiso   1.00
H79    H     0.51873   0.26890   0.65350   0.01267  Uiso   1.00
H81    H     0.84002   0.36542   0.72909   0.01267  Uiso   1.00
H82    H     0.61072   0.13684   0.27112   0.01267  Uiso   1.00
H83    H     0.38927   0.86885   0.72888   0.01267  Uiso   1.00
H84    H     0.16002   0.64029   0.27093   0.01267  Uiso   1.00
H85    H     0.75525   0.25804   0.01016   0.01267  Uiso   1.00
H86    H     0.24553   0.24857   0.99128   0.01267  Uiso   1.00
H87    H     0.24471   0.74765   0.98986   0.01267  Uiso   1.00
H88    H     0.75447   0.75710   0.00870   0.01267  Uiso   1.00
C1     C     0.64646   0.42035   0.06801   0.01267  Uiso   1.00
C2     C     0.73527   0.37114   0.10812   0.01267  Uiso   1.00
C3     C     0.77249   0.40816   0.18522   0.01267  Uiso   1.00
C4     C     0.83054   0.37527   0.34037   0.01267  Uiso   1.00
C5     C     0.87117   0.41568   0.42199   0.01267  Uiso   1.00
C6     C     0.80134   0.38719   0.46098   0.01267  Uiso   1.00
C7     C     0.78327   0.44984   0.89583   0.01267  Uiso   1.00
C8     C     0.85361   0.42396   0.84469   0.01267  Uiso   1.00
C10    C     0.58764   0.40226   0.80009   0.01267  Uiso   1.00
C11    C    -0.00287   0.43703   0.87068   0.01267  Uiso   1.00
C13    C     0.07861   0.08647   0.93310   0.01267  Uiso   1.00
C14    C     0.12763   0.13561   0.89328   0.01267  Uiso   1.00
C15    C     0.08800   0.09840   0.81628   0.01267  Uiso   1.00
C16    C     0.04359   0.16090   0.65876   0.01267  Uiso   1.00
C17    C     1.00448   0.11973   0.57747   0.01267  Uiso   1.00
C18    C     0.95162   0.17695   0.53820   0.01267  Uiso   1.00
C20    C     0.50884   0.07992   0.15550   0.01267  Uiso   1.00
C21    C     0.40657   0.12876   0.25341   0.01267  Uiso   1.00
C23    C     0.62643   0.06725   0.12957   0.01267  Uiso   1.00
C24    C     0.41375   0.16893   0.33351   0.01267  Uiso   1.00
C25    C     0.92111   0.15314   0.06797   0.01267  Uiso   1.00
C26    C     0.87207   0.24225   0.10810   0.01267  Uiso   1.00
C27    C     0.91101   0.28175   0.18521   0.01267  Uiso   1.00
C28    C     1.01187   0.47187   0.34161   0.01267  Uiso   1.00
C29    C     0.05236   0.51291   0.42290   0.01267  Uiso   1.00
C30    C     0.16089   0.58041   0.46240   0.01267  Uiso   1.00
C37    C     0.35431   0.35242   0.93306   0.01267  Uiso   1.00
C38    C     0.26544   0.26348   0.89326   0.01267  Uiso   1.00
C39    C     0.22810   0.22365   0.81626   0.01267  Uiso   1.00
C40    C     0.11508   0.00358   0.65878   0.01267  Uiso   1.00
C41    C     0.07295   0.96344   0.57749   0.01267  Uiso   1.00
C42    C     0.08658   0.86696   0.53824   0.01267  Uiso   1.00
C43    C     0.21674   0.55560   0.10418   0.01267  Uiso   1.00
C44    C     0.14640   0.58149   0.15533   0.01267  Uiso   1.00
C45    C     0.34652   0.63068   0.25330   0.01267  Uiso   1.00
C47    C     1.00289   0.56818   0.12936   0.01267  Uiso   1.00
C48    C     0.41935   0.67070   0.33340   0.01267  Uiso   1.00
C49    C     0.35350   0.58533   0.93200   0.01267  Uiso   1.00
C50    C     0.26470   0.63454   0.89190   0.01267  Uiso   1.00
C51    C     0.22749   0.59752   0.81480   0.01267  Uiso   1.00
C52    C     0.16947   0.63041   0.65964   0.01267  Uiso   1.00
C53    C     0.12883   0.59001   0.57802   0.01267  Uiso   1.00
C54    C     0.19866   0.61850   0.53903   0.01267  Uiso   1.00
C58    C     0.41238   0.60364   0.19991   0.01267  Uiso   1.00
C61    C     0.92137   0.91923   0.06689   0.01267  Uiso   1.00
C62    C     0.87236   0.87007   0.10670   0.01267  Uiso   1.00
C63    C     0.91199   0.90728   0.18370   0.01267  Uiso   1.00
C64    C     0.95641   0.84476   0.34122   0.01267  Uiso   1.00
C65    C    -0.00448   0.88593   0.42251   0.01267  Uiso   1.00
C66    C     0.04837   0.82871   0.46178   0.01267  Uiso   1.00
C67    C     0.61260   0.95115   0.89568   0.01267  Uiso   1.00
C68    C     0.49115   0.92580   0.84450   0.01267  Uiso   1.00
C69    C     0.59342   0.87691   0.74658   0.01267  Uiso   1.00
C70    C     0.71263   0.90335   0.80000   0.01267  Uiso   1.00
C71    C     0.37356   0.93850   0.87043   0.01267  Uiso   1.00
C72    C     0.58623   0.83672   0.66649   0.01267  Uiso   1.00
C73    C     0.07889   0.85256   0.93203   0.01267  Uiso   1.00
C74    C     0.12792   0.76345   0.89191   0.01267  Uiso   1.00
C75    C     0.08900   0.72395   0.81480   0.01267  Uiso   1.00
C76    C    -0.01187   0.53383   0.65840   0.01267  Uiso   1.00
C77    C     0.94764   0.49279   0.57711   0.01267  Uiso   1.00
C78    C     0.83911   0.42528   0.53761   0.01267  Uiso   1.00
C79    C     0.38739   0.05458   0.10432   0.01267  Uiso   1.00
C82    C     0.28736   0.10233   0.20000   0.01267  Uiso   1.00
C85    C     0.64571   0.65324   0.06691   0.01267  Uiso   1.00
C86    C     0.73458   0.74219   0.10671   0.01267  Uiso   1.00
C87    C     0.77191   0.78201   0.18372   0.01267  Uiso   1.00
C88    C     0.88490   1.00208   0.34120   0.01267  Uiso   1.00
C89    C     0.92704   0.04223   0.42249   0.01267  Uiso   1.00
C90    C     0.91341   0.13871   0.46173   0.01267  Uiso   1.00
C93    C     0.65352   0.37525   0.74671   0.01267  Uiso   1.00
C96    C     0.58070   0.33552   0.66660   0.01267  Uiso   1.00
C97    C     0.78754   0.38616   0.76956   0.01267  Uiso   1.00
C98    C     0.51779   0.11707   0.23062   0.01267  Uiso   1.00
C99    C     0.48220   0.88863   0.76938   0.01267  Uiso   1.00
C100   C     0.21250   0.61953   0.23046   0.01267  Uiso   1.00
C101   C     0.86063   0.36397   0.22362   0.01267  Uiso   1.00
C102   C     0.78471   0.28765   0.06976   0.01267  Uiso   1.00
C103   C     0.98079   0.48346   0.46100   0.01267  Uiso   1.00
C104   C     0.13874   0.14170   0.77764   0.01267  Uiso   1.00
C105   C     0.21573   0.21875   0.93167   0.01267  Uiso   1.00
C106   C     0.01951   0.02237   0.53905   0.01267  Uiso   1.00
C107   C     0.13937   0.64173   0.77639   0.01267  Uiso   1.00
C108   C     0.21526   0.71804   0.93025   0.01267  Uiso   1.00
C109   C     0.01922   0.52223   0.53901   0.01267  Uiso   1.00
C110   C     0.86126   0.86397   0.22234   0.01267  Uiso   1.00
C111   C     0.78428   0.78692   0.06831   0.01267  Uiso   1.00
C112   C     0.98048   0.98330   0.46093   0.01267  Uiso   1.00
N1     N     0.65306   0.43857   0.87285   0.01267  Uiso   1.00
N2     N     0.28011   0.06605   0.12725   0.01267  Uiso   1.00
N3     N     0.71988   0.93966   0.87275   0.01267  Uiso   1.00
N4     N     0.34695   0.56710   0.12716   0.01267  Uiso   1.00
N5     N     0.89970   0.40316   0.30251   0.01267  Uiso   1.00
N6     N     0.09926   0.10220   0.69867   0.01267  Uiso   1.00
N7     N     0.10030   0.60253   0.69750   0.01267  Uiso   1.00
N8     N     0.90073   0.90347   0.30131   0.01267  Uiso   1.00
O1     O     0.65633   0.41828   0.00690   0.01267  Uiso   1.00
O2     O     0.56167   0.46478   0.09517   0.01267  Uiso   1.00
O3     O     0.73526   0.31710   0.30686   0.01267  Uiso   1.00
O4     O     0.14956   0.08799   0.99400   0.01267  Uiso   1.00
O5     O     0.96663   0.04220   0.90567   0.01267  Uiso   1.00
O6     O     1.02695   0.24411   0.69186   0.01267  Uiso   1.00
O7     O     0.85029   0.09408   0.00682   0.01267  Uiso   1.00
O8     O     0.03314   0.13604   0.09518   0.01267  Uiso   1.00
O9     O     0.07328   0.49602   0.30774   0.01267  Uiso   1.00
O10    O     0.34422   0.41185   0.99393   0.01267  Uiso   1.00
O11    O     0.43896   0.36918   0.90567   0.01267  Uiso   1.00
O12    O     0.16484   0.95351   0.69191   0.01267  Uiso   1.00
O13    O     0.34362   0.58740   0.99311   0.01267  Uiso   1.00
O14    O     0.43830   0.54091   0.90485   0.01267  Uiso   1.00
O15    O     0.26475   0.68859   0.69316   0.01267  Uiso   1.00
O16    O     0.85042   0.91771   0.00599   0.01267  Uiso   1.00
O17    O     0.03335   0.96350   0.09432   0.01267  Uiso   1.00
O18    O    -0.02693   0.76157   0.30812   0.01267  Uiso   1.00
O19    O     0.14971   0.91163   0.99318   0.01267  Uiso   1.00
O20    O     0.96687   0.86966   0.90482   0.01267  Uiso   1.00
O21    O     0.92672   0.50968   0.69227   0.01267  Uiso   1.00
O22    O     0.65581   0.59381   0.00605   0.01267  Uiso   1.00
O23    O     0.56104   0.63649   0.09431   0.01267  Uiso   1.00
O24    O     0.83512   0.05215   0.30807   0.01267  Uiso   1.00
loop_
_geom_bond_atom_site_label_1
_geom_bond_atom_site_label_2
_geom_bond_distance
_geom_bond_site_symmetry_2
_ccdc_geom_bond_type
Cu1    Cu4     2.682   1_556 S
Cu1    N1      1.968   .     S
Cu1    O1      1.858   1_556 S
Cu1    O11     1.848   .     S
Cu1    O14     1.852   .     S
Cu1    O22     1.854   1_556 S
Cu2    Cu3     2.682   1_444 S
Cu2    N2      1.968   .     S
Cu2    O4      1.854   1_554 S
Cu2    O8      1.852   .     S
Cu2    O17     1.848   1_545 S
Cu2    O19     1.858   1_544 S
Cu3    Cu2     2.682   1_666 S
Cu3    N3      1.968   .     S
Cu3    O5      1.848   1_565 S
Cu3    O7      1.858   1_566 S
Cu3    O16     1.854   1_556 S
Cu3    O20     1.852   .     S
Cu4    Cu1     2.682   1_554 S
Cu4    N4      1.968   .     S
Cu4    O2      1.852   .     S
Cu4    O10     1.854   1_554 S
Cu4    O13     1.858   1_554 S
Cu4    O23     1.848   .     S
H1     C3      1.084   .     S
H2     C6      1.083   .     S
H3     C7      1.082   .     S
H4     C10     1.083   .     S
H5     C11     1.111   .     S
H6     C11     1.111   .     S
H7     C11     1.111   .     S
H10    C96     1.111   .     S
H11    C15     1.084   .     S
H12    C18     1.083   .     S
H17    C23     1.111   1_565 S
H18    C24     1.110   .     S
H19    C24     1.110   .     S
H21    C27     1.084   .     S
H22    C30     1.083   .     S
H25    C71     1.111   .     S
H30    C72     1.111   .     S
H31    C39     1.084   .     S
H32    C42     1.083   .     S
H33    C43     1.082   .     S
H37    C47     1.111   .     S
H38    C48     1.110   .     S
H39    C48     1.110   .     S
H41    C51     1.084   .     S
H42    C54     1.083   .     S
H44    C58     1.083   .     S
H45    C47     1.111   .     S
H46    C47     1.111   .     S
H50    C48     1.111   .     S
H51    C63     1.084   .     S
H52    C66     1.083   .     S
H53    C67     1.082   .     S
H54    C70     1.083   .     S
H56    C71     1.111   .     S
H57    C71     1.111   1_545 S
H58    C72     1.110   .     S
H59    C72     1.110   .     S
H61    C75     1.084   .     S
H62    C78     1.083   .     S
H63    C79     1.082   .     S
H64    C82     1.083   .     S
H65    C23     1.111   .     S
H66    C23     1.111   .     S
H70    C24     1.111   .     S
H71    C87     1.084   .     S
H72    C90     1.083   .     S
H78    C96     1.110   .     S
H79    C96     1.110   .     S
H81    C97     1.083   .     S
H82    C98     1.083   .     S
H83    C99     1.083   .     S
H84    C100    1.083   .     S
H85    C102    1.084   .     S
H86    C105    1.084   .     S
H87    C108    1.084   .     S
H88    C111    1.084   .     S
C1     C2      1.474   .     S
C1     O1      1.270   .     A
C1     O2      1.270   .     A
C2     C3      1.402   .     A
C2     C102    1.406   .     A
C3     C101    1.399   .     A
C4     C5      1.484   .     S
C4     N5      1.375   .     S
C4     O3      1.222   .     D
C5     C6      1.404   .     A
C5     C103    1.412   .     A
C6     C78     1.394   .     A
C7     C8      1.401   .     A
C7     N1      1.362   .     A
C8     C11     1.502   1_655 S
C8     C97     1.401   .     A
C10    C93     1.402   .     A
C10    N1      1.361   .     A
C11    C8      1.502   1_455 S
C13    C14     1.470   .     S
C13    O4      1.269   .     A
C13    O5      1.269   1_455 A
C14    C15     1.401   .     A
C14    C105    1.404   .     A
C15    C104    1.400   .     A
C16    C17     1.478   1_455 S
C16    N6      1.438   .     S
C16    O6      1.221   1_455 D
C17    C16     1.478   1_655 S
C17    C18     1.403   .     A
C17    C106    1.414   1_655 A
C18    C90     1.391   .     A
C20    C23     1.502   .     S
C20    C79     1.401   .     A
C20    C98     1.401   .     A
C21    C24     1.500   .     S
C21    C82     1.402   .     A
C21    C98     1.402   .     A
C23    H17     1.111   1_545 S
C25    C26     1.474   .     S
C25    O7      1.270   .     A
C25    O8      1.270   1_655 A
C26    C27     1.402   .     A
C26    C102    1.406   .     A
C27    C101    1.399   .     A
C28    C29     1.478   1_655 S
C28    N5      1.439   .     S
C28    O9      1.221   1_655 D
C29    C28     1.478   1_455 S
C29    C30     1.403   .     A
C29    C103    1.410   1_455 A
C30    C54     1.394   .     A
C37    C38     1.470   .     S
C37    O10     1.269   .     A
C37    O11     1.269   .     A
C38    C39     1.401   .     A
C38    C105    1.404   .     A
C39    C104    1.400   .     A
C40    C41     1.478   1_545 S
C40    N6      1.438   .     S
C40    O12     1.221   1_545 D
C41    C40     1.478   1_565 S
C41    C42     1.403   .     A
C41    C106    1.414   1_565 A
C42    C66     1.391   .     A
C43    C44     1.401   .     A
C43    N4      1.362   .     A
C44    C47     1.502   1_455 S
C44    C100    1.401   .     A
C45    C48     1.500   .     S
C45    C58     1.402   .     A
C45    C100    1.402   .     A
C47    C44     1.502   1_655 S
C49    C50     1.474   .     S
C49    O13     1.270   .     A
C49    O14     1.270   .     A
C50    C51     1.402   .     A
C50    C108    1.406   .     A
C51    C107    1.399   .     A
C52    C53     1.484   .     S
C52    N7      1.375   .     S
C52    O15     1.222   .     D
C53    C54     1.404   .     A
C53    C109    1.412   .     A
C58    N4      1.361   .     A
C61    C62     1.470   .     S
C61    O16     1.269   .     A
C61    O17     1.269   1_655 A
C62    C63     1.401   .     A
C62    C111    1.404   .     A
C63    C110    1.400   .     A
C64    C65     1.478   1_655 S
C64    N8      1.438   .     S
C64    O18     1.221   1_655 D
C65    C64     1.478   1_455 S
C65    C66     1.403   .     A
C65    C112    1.414   1_455 A
C67    C68     1.401   .     A
C67    N3      1.362   .     A
C68    C71     1.502   .     S
C68    C99     1.401   .     A
C69    C70     1.402   .     A
C69    C72     1.500   .     S
C69    C99     1.402   .     A
C70    N3      1.361   .     A
C71    H57     1.111   1_565 S
C73    C74     1.474   .     S
C73    O19     1.270   .     A
C73    O20     1.270   1_455 A
C74    C75     1.402   .     A
C74    C108    1.406   .     A
C75    C107    1.399   .     A
C76    C77     1.478   1_455 S
C76    N7      1.439   .     S
C76    O21     1.221   1_455 D
C77    C76     1.478   1_655 S
C77    C78     1.403   .     A
C77    C109    1.410   1_655 A
C79    N2      1.362   .     A
C82    N2      1.361   .     A
C85    C86     1.470   .     S
C85    O22     1.269   .     A
C85    O23     1.269   .     A
C86    C87     1.401   .     A
C86    C111    1.404   .     A
C87    C110    1.400   .     A
C88    C89     1.478   1_565 S
C88    N8      1.438   .     S
C88    O24     1.221   1_565 D
C89    C88     1.478   1_545 S
C89    C90     1.403   .     A
C89    C112    1.414   1_545 A
C93    C96     1.500   .     S
C93    C97     1.402   .     A
C101   N5      1.435   .     S
C103   C29     1.410   1_655 A
C103   C109    1.419   1_655 A
C104   N6      1.436   .     S
C106   C17     1.414   1_455 A
C106   C41     1.414   1_545 A
C106   C112    1.421   1_445 A
C107   N7      1.435   .     S
C109   C103    1.419   1_455 A
C109   C77     1.410   1_455 A
C110   N8      1.436   .     S
C112   C65     1.414   1_655 A
C112   C89     1.414   1_565 A
C112   C106    1.421   1_665 A
O1     Cu1     1.858   1_554 S
O4     Cu2     1.854   1_556 S
O5     C13     1.269   1_655 A
O5     Cu3     1.848   1_545 S
O6     C16     1.221   1_655 D
O7     Cu3     1.858   1_544 S
O8     C25     1.270   1_455 A
O9     C28     1.221   1_455 D
O10    Cu4     1.854   1_556 S
O12    C40     1.221   1_565 D
O13    Cu4     1.858   1_556 S
O16    Cu3     1.854   1_554 S
O17    C61     1.269   1_455 A
O17    Cu2     1.848   1_565 S
O18    C64     1.221   1_455 D
O19    Cu2     1.858   1_566 S
O20    C73     1.270   1_655 A
O21    C76     1.221   1_655 D
O22    Cu1     1.854   1_554 S
O24    C88     1.221   1_545 D
