data_ANUGUM_clean
_audit_creation_date              2014-07-02
_audit_creation_method            'Materials Studio'
_symmetry_space_group_name_H-M    'P1'
_symmetry_Int_Tables_number       1
_symmetry_cell_setting            triclinic
loop_
_symmetry_equiv_pos_as_xyz
  x,y,z
_cell_length_a                    11.8586
_cell_length_b                    16.4885
_cell_length_c                    17.4516
_cell_angle_alpha                 89.6465
_cell_angle_beta                  89.0169
_cell_angle_gamma                 68.9242
loop_
_atom_site_label
_atom_site_type_symbol
_atom_site_fract_x
_atom_site_fract_y
_atom_site_fract_z
_atom_site_U_iso_or_equiv
_atom_site_adp_type
_atom_site_occupancy
Zn1    Zn    0.85271   0.13004   0.67142   0.01267  Uiso   1.00
Zn2    Zn    0.01725   0.13004   0.82858   0.01267  Uiso   1.00
Zn3    Zn    0.14729   0.86996   0.32858   0.01267  Uiso   1.00
Zn4    Zn    0.98275   0.86996   0.17142   0.01267  Uiso   1.00
H1     H     0.73650   0.93220   0.75570   0.01267  Uiso   1.00
H2     H     0.88940   0.96940   0.95040   0.01267  Uiso   1.00
H3     H     0.79000   0.67500   0.82320   0.01267  Uiso   1.00
H4     H     0.76260   0.77480   0.93600   0.01267  Uiso   1.00
H5     H     0.64130   0.54560   0.65280   0.01267  Uiso   1.00
H6     H     0.72770   0.39860   0.64750   0.01267  Uiso   1.00
H7     H     0.33130   0.93220   0.74430   0.01267  Uiso   1.00
H8     H     0.14120   0.96940   0.54960   0.01267  Uiso   1.00
H9     H     0.53500   0.67500   0.67680   0.01267  Uiso   1.00
H10    H     0.46260   0.77480   0.56400   0.01267  Uiso   1.00
H11    H     0.81310   0.54560   0.84720   0.01267  Uiso   1.00
H12    H     0.87370   0.39860   0.85250   0.01267  Uiso   1.00
H13    H     0.26350   0.06780   0.24430   0.01267  Uiso   1.00
H14    H     0.11060   0.03060   0.04960   0.01267  Uiso   1.00
H15    H     0.21000   0.32500   0.17680   0.01267  Uiso   1.00
H16    H     0.23740   0.22520   0.06400   0.01267  Uiso   1.00
H17    H     0.35870   0.45440   0.34720   0.01267  Uiso   1.00
H18    H     0.27230   0.60140   0.35250   0.01267  Uiso   1.00
H19    H     0.66870   0.06780   0.25570   0.01267  Uiso   1.00
H20    H     0.85880   0.03060   0.45040   0.01267  Uiso   1.00
H21    H     0.46500   0.32500   0.32320   0.01267  Uiso   1.00
H22    H     0.53740   0.22520   0.43600   0.01267  Uiso   1.00
H23    H     0.18690   0.45440   0.15280   0.01267  Uiso   1.00
H24    H     0.12630   0.60140   0.14750   0.01267  Uiso   1.00
H25    H     0.54970   0.90060   0.75000   0.01267  Uiso   1.00
H26    H     0.45030   0.09940   0.25000   0.01267  Uiso   1.00
C1     C     0.67731   0.79758   0.79510   0.01267  Uiso   1.00
C2     C     0.81525   0.96230   0.84700   0.01267  Uiso   1.00
C3     C     0.75953   0.91634   0.80590   0.01267  Uiso   1.00
C4     C     0.85125   0.93850   0.92330   0.01267  Uiso   1.00
C5     C     0.73757   0.84626   0.83920   0.01267  Uiso   1.00
C6     C     0.72320   0.70560   0.79400   0.01267  Uiso   1.00
C7     C     0.77445   0.82270   0.91400   0.01267  Uiso   1.00
C8     C     0.84699   0.03422   0.80830   0.01267  Uiso   1.00
C9     C     0.86652   0.84536   0.03830   0.01267  Uiso   1.00
C10    C     0.83006   0.87008   0.95740   0.01267  Uiso   1.00
C11    C     0.69274   0.51612   0.69160   0.01267  Uiso   1.00
C12    C     0.74096   0.42788   0.68980   0.01267  Uiso   1.00
C13    C     0.52511   0.79758   0.70490   0.01267  Uiso   1.00
C14    C     0.22245   0.96230   0.65300   0.01267  Uiso   1.00
C15    C     0.32413   0.91634   0.69410   0.01267  Uiso   1.00
C16    C     0.21025   0.93850   0.57670   0.01267  Uiso   1.00
C17    C     0.41617   0.84626   0.66080   0.01267  Uiso   1.00
C18    C     0.57120   0.70560   0.70600   0.01267  Uiso   1.00
C19    C     0.40285   0.82270   0.58600   0.01267  Uiso   1.00
C20    C     0.11879   0.03422   0.69170   0.01267  Uiso   1.00
C21    C     0.28812   0.84536   0.46170   0.01267  Uiso   1.00
C22    C     0.29986   0.87008   0.54260   0.01267  Uiso   1.00
C23    C     0.79114   0.51612   0.80840   0.01267  Uiso   1.00
C24    C     0.83116   0.42788   0.81020   0.01267  Uiso   1.00
C25    C     0.32269   0.20242   0.20490   0.01267  Uiso   1.00
C26    C     0.18475   0.03770   0.15300   0.01267  Uiso   1.00
C27    C     0.24047   0.08366   0.19410   0.01267  Uiso   1.00
C28    C     0.14875   0.06150   0.07670   0.01267  Uiso   1.00
C29    C     0.26243   0.15374   0.16080   0.01267  Uiso   1.00
C30    C     0.27680   0.29440   0.20600   0.01267  Uiso   1.00
C31    C     0.22555   0.17730   0.08600   0.01267  Uiso   1.00
C32    C     0.15301   0.96578   0.19170   0.01267  Uiso   1.00
C33    C     0.13348   0.15464   0.96170   0.01267  Uiso   1.00
C34    C     0.16994   0.12992   0.04260   0.01267  Uiso   1.00
C35    C     0.30726   0.48388   0.30840   0.01267  Uiso   1.00
C36    C     0.25904   0.57212   0.31020   0.01267  Uiso   1.00
C37    C     0.47489   0.20242   0.29510   0.01267  Uiso   1.00
C38    C     0.77755   0.03770   0.34700   0.01267  Uiso   1.00
C39    C     0.67587   0.08366   0.30590   0.01267  Uiso   1.00
C40    C     0.78975   0.06150   0.42330   0.01267  Uiso   1.00
C41    C     0.58383   0.15374   0.33920   0.01267  Uiso   1.00
C42    C     0.42880   0.29440   0.29400   0.01267  Uiso   1.00
C43    C     0.59715   0.17730   0.41400   0.01267  Uiso   1.00
C44    C     0.88121   0.96578   0.30830   0.01267  Uiso   1.00
C45    C     0.71188   0.15464   0.53830   0.01267  Uiso   1.00
C46    C     0.70014   0.12992   0.45740   0.01267  Uiso   1.00
C47    C     0.20886   0.48388   0.19160   0.01267  Uiso   1.00
C48    C     0.16884   0.57212   0.18980   0.01267  Uiso   1.00
C49    C     0.57990   0.84020   0.75000   0.01267  Uiso   1.00
C50    C     0.71840   0.56320   0.75000   0.01267  Uiso   1.00
C51    C     0.66950   0.66100   0.75000   0.01267  Uiso   1.00
C52    C     0.85810   0.28380   0.75000   0.01267  Uiso   1.00
C53    C     0.80990   0.38020   0.75000   0.01267  Uiso   1.00
C54    C     0.42010   0.15980   0.25000   0.01267  Uiso   1.00
C55    C     0.28160   0.43680   0.25000   0.01267  Uiso   1.00
C56    C     0.33050   0.33900   0.25000   0.01267  Uiso   1.00
C57    C     0.14190   0.71620   0.25000   0.01267  Uiso   1.00
C58    C     0.19010   0.61980   0.25000   0.01267  Uiso   1.00
O1     O     0.91843   0.88974   0.07048   0.01267  Uiso   1.00
O2     O     0.92617   0.24746   0.80359   0.01267  Uiso   1.00
O3     O     0.90137   0.07126   0.84565   0.01267  Uiso   1.00
O4     O     0.81689   0.04942   0.74028   0.01267  Uiso   1.00
O5     O     0.84936   0.78388   0.06850   0.01267  Uiso   1.00
O6     O     0.19183   0.88974   0.42952   0.01267  Uiso   1.00
O7     O     0.82637   0.24746   0.69641   0.01267  Uiso   1.00
O8     O     0.02737   0.07126   0.65435   0.01267  Uiso   1.00
O9     O     0.13369   0.04942   0.75972   0.01267  Uiso   1.00
O10    O     0.36676   0.78388   0.43150   0.01267  Uiso   1.00
O11    O     0.08157   0.11026   0.92952   0.01267  Uiso   1.00
O12    O     0.07383   0.75254   0.19641   0.01267  Uiso   1.00
O13    O     0.09863   0.92874   0.15435   0.01267  Uiso   1.00
O14    O     0.18311   0.95058   0.25972   0.01267  Uiso   1.00
O15    O     0.15064   0.21612   0.93150   0.01267  Uiso   1.00
O16    O     0.80817   0.11026   0.57048   0.01267  Uiso   1.00
O17    O     0.17363   0.75254   0.30359   0.01267  Uiso   1.00
O18    O     0.97263   0.92874   0.34565   0.01267  Uiso   1.00
O19    O     0.86631   0.95058   0.24028   0.01267  Uiso   1.00
O20    O     0.63324   0.21612   0.56850   0.01267  Uiso   1.00
