data_AQMAND_clean
_audit_creation_date              2014-07-02
_audit_creation_method            'Materials Studio'
_symmetry_space_group_name_H-M    'P1'
_symmetry_Int_Tables_number       1
_symmetry_cell_setting            triclinic
loop_
_symmetry_equiv_pos_as_xyz
  x,y,z
_cell_length_a                    10.6120
_cell_length_b                    10.6120
_cell_length_c                    10.9853
_cell_angle_alpha                 101.3060
_cell_angle_beta                  117.4920
_cell_angle_gamma                 108.6140
loop_
_atom_site_label
_atom_site_type_symbol
_atom_site_fract_x
_atom_site_fract_y
_atom_site_fract_z
_atom_site_U_iso_or_equiv
_atom_site_adp_type
_atom_site_occupancy
Nd1    Nd    0.94833   0.13555   0.87980   0.01267  Uiso   1.00
Nd2    Nd    0.25575   0.56853   0.62020   0.01267  Uiso   1.00
Nd3    Nd    0.05167   0.86445   0.12020   0.01267  Uiso   1.00
Nd4    Nd    0.74425   0.43147   0.37980   0.01267  Uiso   1.00
C1     C     0.90220   0.12590   0.12490   0.01267  Uiso   1.00
C2     C     0.54850   0.92900   0.74450   0.01267  Uiso   1.00
C3     C     0.50740   0.05100   0.71680   0.01267  Uiso   1.00
C4     C     0.59250   0.14690   0.66280   0.01267  Uiso   1.00
C5     C     0.00100   0.27730   0.37510   0.01267  Uiso   1.00
C6     C     0.18450   0.30400   0.75550   0.01267  Uiso   1.00
C7     C     0.33420   0.29060   0.78320   0.01267  Uiso   1.00
C8     C     0.48410   0.42970   0.83720   0.01267  Uiso   1.00
C9     C     0.09780   0.87410   0.87510   0.01267  Uiso   1.00
C10    C     0.45150   0.07100   0.25550   0.01267  Uiso   1.00
C11    C     0.49260   0.94900   0.28320   0.01267  Uiso   1.00
C12    C     0.40750   0.85310   0.33720   0.01267  Uiso   1.00
C13    C     0.99900   0.72270   0.62490   0.01267  Uiso   1.00
C14    C     0.81550   0.69600   0.24450   0.01267  Uiso   1.00
C15    C     0.66580   0.70940   0.21680   0.01267  Uiso   1.00
C16    C     0.51590   0.57030   0.16280   0.01267  Uiso   1.00
C17    C     0.87620   0.12620   0.25000   0.01267  Uiso   1.00
C18    C     0.12380   0.87380   0.75000   0.01267  Uiso   1.00
O1     O     0.86740   0.20680   0.05860   0.01267  Uiso   1.00
O2     O     0.95980   0.04930   0.09010   0.01267  Uiso   1.00
O3     O     0.68340   0.94420   0.79000   0.01267  Uiso   1.00
O4     O     0.42940   0.81770   0.71150   0.01267  Uiso   1.00
O5     O     0.74230   0.19240   0.72810   0.01267  Uiso   1.00
O6     O     0.51540   0.18710   0.57130   0.01267  Uiso   1.00
O7     O     0.14820   0.30880   0.44140   0.01267  Uiso   1.00
O8     O     0.95920   0.36970   0.40990   0.01267  Uiso   1.00
O9     O     0.15420   0.39340   0.71000   0.01267  Uiso   1.00
O10    O     0.10620   0.21790   0.78850   0.01267  Uiso   1.00
O11    O     0.46430   0.51420   0.77190   0.01267  Uiso   1.00
O12    O     0.61580   0.44410   0.92870   0.01267  Uiso   1.00
O13    O     0.13260   0.79320   0.94140   0.01267  Uiso   1.00
O14    O     0.04020   0.95070   0.90990   0.01267  Uiso   1.00
O15    O     0.31660   0.05580   0.21000   0.01267  Uiso   1.00
O16    O     0.57060   0.18230   0.28850   0.01267  Uiso   1.00
O17    O     0.25770   0.80760   0.27190   0.01267  Uiso   1.00
O18    O     0.48460   0.81290   0.42870   0.01267  Uiso   1.00
O19    O     0.85180   0.69120   0.55860   0.01267  Uiso   1.00
O20    O     0.04080   0.63030   0.59010   0.01267  Uiso   1.00
O21    O     0.84580   0.60660   0.29000   0.01267  Uiso   1.00
O22    O     0.89380   0.78210   0.21150   0.01267  Uiso   1.00
O23    O     0.53570   0.48580   0.22810   0.01267  Uiso   1.00
O24    O     0.38420   0.55590   0.07130   0.01267  Uiso   1.00
