data_ATOTIM_clean
_audit_creation_date              2014-07-02
_audit_creation_method            'Materials Studio'
_symmetry_space_group_name_H-M    'P1'
_symmetry_Int_Tables_number       1
_symmetry_cell_setting            triclinic
loop_
_symmetry_equiv_pos_as_xyz
  x,y,z
_cell_length_a                    6.8606
_cell_length_b                    21.2033
_cell_length_c                    21.2033
_cell_angle_alpha                 60.0225
_cell_angle_beta                  90.0000
_cell_angle_gamma                 90.0000
loop_
_atom_site_label
_atom_site_type_symbol
_atom_site_fract_x
_atom_site_fract_y
_atom_site_fract_z
_atom_site_U_iso_or_equiv
_atom_site_adp_type
_atom_site_occupancy
V1     V     0.50000   0.00000   0.00000   0.01267  Uiso   1.00
V2     V     0.00000   0.00000   0.00000   0.01267  Uiso   1.00
V3     V     0.50000   0.50000  -0.00000   0.01267  Uiso   1.00
V4     V     0.00000   0.50000  -0.00000   0.01267  Uiso   1.00
V5     V     0.00000   0.00000   0.50000   0.01267  Uiso   1.00
V6     V     0.50000   0.00000   0.50000   0.01267  Uiso   1.00
H1     H     0.53930   0.32150   0.21590   0.01267  Uiso   1.00
H2     H     0.96220   0.67660   0.03840   0.01267  Uiso   1.00
H3     H     0.95980   0.78510   0.03770   0.01267  Uiso   1.00
H4     H     0.03930   0.67850   0.78410   0.01267  Uiso   1.00
H5     H     0.46220   0.32340   0.96160   0.01267  Uiso   1.00
H6     H     0.45980   0.21490   0.96230   0.01267  Uiso   1.00
H7     H     0.96070   0.21590   0.32150   0.01267  Uiso   1.00
H8     H     0.53780   0.03840   0.67660   0.01267  Uiso   1.00
H9     H     0.54020   0.03770   0.78510   0.01267  Uiso   1.00
H10    H     0.46070   0.78410   0.67850   0.01267  Uiso   1.00
H11    H     0.03780   0.96160   0.32340   0.01267  Uiso   1.00
H12    H     0.04020   0.96230   0.21490   0.01267  Uiso   1.00
H13    H     0.46070   0.67850   0.78410   0.01267  Uiso   1.00
H14    H     0.03780   0.32340   0.96160   0.01267  Uiso   1.00
H15    H     0.04020   0.21490   0.96230   0.01267  Uiso   1.00
H16    H     0.96070   0.32150   0.21590   0.01267  Uiso   1.00
H17    H     0.53780   0.67660   0.03840   0.01267  Uiso   1.00
H18    H     0.54020   0.78510   0.03770   0.01267  Uiso   1.00
H19    H     0.03930   0.78410   0.67850   0.01267  Uiso   1.00
H20    H     0.46220   0.96160   0.32340   0.01267  Uiso   1.00
H21    H     0.45980   0.96230   0.21490   0.01267  Uiso   1.00
H22    H     0.53930   0.21590   0.32150   0.01267  Uiso   1.00
H23    H     0.96220   0.03840   0.67660   0.01267  Uiso   1.00
H24    H     0.95980   0.03770   0.78510   0.01267  Uiso   1.00
C1     C     0.42140   0.29931   0.23701   0.01267  Uiso   1.00
C2     C     0.07920   0.69940   0.03698   0.01267  Uiso   1.00
C3     C     0.07670   0.76322   0.03702   0.01267  Uiso   1.00
C4     C     0.92140   0.70069   0.76299   0.01267  Uiso   1.00
C5     C     0.57920   0.30060   0.96302   0.01267  Uiso   1.00
C6     C     0.57670   0.23678   0.96298   0.01267  Uiso   1.00
C7     C     0.07860   0.23701   0.29931   0.01267  Uiso   1.00
C8     C     0.42080   0.03698   0.69940   0.01267  Uiso   1.00
C9     C     0.42330   0.03702   0.76322   0.01267  Uiso   1.00
C10    C     0.57860   0.76299   0.70069   0.01267  Uiso   1.00
C11    C     0.92080   0.96302   0.30060   0.01267  Uiso   1.00
C12    C     0.92330   0.96298   0.23678   0.01267  Uiso   1.00
C13    C     0.57860   0.70069   0.76299   0.01267  Uiso   1.00
C14    C     0.92080   0.30060   0.96302   0.01267  Uiso   1.00
C15    C     0.92330   0.23678   0.96298   0.01267  Uiso   1.00
C16    C     0.07860   0.29931   0.23701   0.01267  Uiso   1.00
C17    C     0.42080   0.69940   0.03698   0.01267  Uiso   1.00
C18    C     0.42330   0.76322   0.03702   0.01267  Uiso   1.00
C19    C     0.92140   0.76299   0.70069   0.01267  Uiso   1.00
C20    C     0.57920   0.96302   0.30060   0.01267  Uiso   1.00
C21    C     0.57670   0.96298   0.23678   0.01267  Uiso   1.00
C22    C     0.42140   0.23701   0.29931   0.01267  Uiso   1.00
C23    C     0.07920   0.03698   0.69940   0.01267  Uiso   1.00
C24    C     0.07670   0.03702   0.76322   0.01267  Uiso   1.00
C25    C     0.25000   0.33156   0.20310   0.01267  Uiso   1.00
C26    C     0.25000   0.60463   0.01905   0.01267  Uiso   1.00
C27    C     0.25000   0.40224   0.12250   0.01267  Uiso   1.00
C28    C     0.25000   0.66828   0.03498   0.01267  Uiso   1.00
C29    C     0.25000   0.87009   0.03063   0.01267  Uiso   1.00
C30    C     0.25000   0.79426   0.03612   0.01267  Uiso   1.00
C31    C     0.75000   0.66844   0.79690   0.01267  Uiso   1.00
C32    C     0.75000   0.39537   0.98095   0.01267  Uiso   1.00
C33    C     0.75000   0.59776   0.87750   0.01267  Uiso   1.00
C34    C     0.75000   0.33172   0.96502   0.01267  Uiso   1.00
C35    C     0.75000   0.12991   0.96937   0.01267  Uiso   1.00
C36    C     0.75000   0.20574   0.96388   0.01267  Uiso   1.00
C37    C     0.25000   0.20310   0.33156   0.01267  Uiso   1.00
C38    C     0.25000   0.01905   0.60463   0.01267  Uiso   1.00
C39    C     0.25000   0.12250   0.40224   0.01267  Uiso   1.00
C40    C     0.25000   0.03498   0.66828   0.01267  Uiso   1.00
C41    C     0.25000   0.03063   0.87009   0.01267  Uiso   1.00
C42    C     0.25000   0.03612   0.79426   0.01267  Uiso   1.00
C43    C     0.75000   0.79690   0.66844   0.01267  Uiso   1.00
C44    C     0.75000   0.98095   0.39537   0.01267  Uiso   1.00
C45    C     0.75000   0.87750   0.59776   0.01267  Uiso   1.00
C46    C     0.75000   0.96502   0.33172   0.01267  Uiso   1.00
C47    C     0.75000   0.96937   0.12991   0.01267  Uiso   1.00
C48    C     0.75000   0.96388   0.20574   0.01267  Uiso   1.00
O1     O     0.40960   0.42500   0.09834   0.01267  Uiso   1.00
O2     O     0.41590   0.90023   0.02537   0.01267  Uiso   1.00
O3     O     0.41510   0.57611   0.02239   0.01267  Uiso   1.00
O4     O     0.90960   0.57500   0.90166   0.01267  Uiso   1.00
O5     O     0.91590   0.09977   0.97463   0.01267  Uiso   1.00
O6     O     0.91510   0.42389   0.97761   0.01267  Uiso   1.00
O7     O     0.09040   0.09834   0.42500   0.01267  Uiso   1.00
O8     O     0.08410   0.02537   0.90023   0.01267  Uiso   1.00
O9     O     0.08490   0.02239   0.57611   0.01267  Uiso   1.00
O10    O     0.59040   0.90166   0.57500   0.01267  Uiso   1.00
O11    O     0.58410   0.97463   0.09977   0.01267  Uiso   1.00
O12    O     0.58490   0.97761   0.42389   0.01267  Uiso   1.00
O13    O     0.59040   0.57500   0.90166   0.01267  Uiso   1.00
O14    O     0.58410   0.09977   0.97463   0.01267  Uiso   1.00
O15    O     0.58490   0.42389   0.97761   0.01267  Uiso   1.00
O16    O     0.09040   0.42500   0.09834   0.01267  Uiso   1.00
O17    O     0.08410   0.90023   0.02537   0.01267  Uiso   1.00
O18    O     0.08490   0.57611   0.02239   0.01267  Uiso   1.00
O19    O     0.90960   0.90166   0.57500   0.01267  Uiso   1.00
O20    O     0.91590   0.97463   0.09977   0.01267  Uiso   1.00
O21    O     0.91510   0.97761   0.42389   0.01267  Uiso   1.00
O22    O     0.40960   0.09834   0.42500   0.01267  Uiso   1.00
O23    O     0.41590   0.02537   0.90023   0.01267  Uiso   1.00
O24    O     0.41510   0.02239   0.57611   0.01267  Uiso   1.00
O25    O     0.75000   0.98244   0.98244   0.01267  Uiso   1.00
O26    O     0.25000   0.01756   0.01756   0.01267  Uiso   1.00
O27    O     0.75000   0.50130   0.04138   0.01267  Uiso   1.00
O28    O     0.25000   0.49870   0.95862   0.01267  Uiso   1.00
O29    O     0.75000   0.04138   0.50130   0.01267  Uiso   1.00
O30    O     0.25000   0.95862   0.49870   0.01267  Uiso   1.00
