data_AVEMOE_clean
_audit_creation_date              2014-07-02
_audit_creation_method            'Materials Studio'
_symmetry_space_group_name_H-M    'P1'
_symmetry_Int_Tables_number       1
_symmetry_cell_setting            triclinic
loop_
_symmetry_equiv_pos_as_xyz
  x,y,z
_cell_length_a                    6.9008
_cell_length_b                    10.3551
_cell_length_c                    16.6597
_cell_angle_alpha                 90.0000
_cell_angle_beta                  90.0000
_cell_angle_gamma                 90.0000
loop_
_atom_site_label
_atom_site_type_symbol
_atom_site_fract_x
_atom_site_fract_y
_atom_site_fract_z
_atom_site_U_iso_or_equiv
_atom_site_adp_type
_atom_site_occupancy
Ag1    Ag    0.61160   0.01340   0.28457   0.01267  Uiso   1.00
Ag2    Ag    0.37773   0.22839   0.92840   0.01267  Uiso   1.00
Ag3    Ag    0.11160   0.51340   0.21543   0.01267  Uiso   1.00
Ag4    Ag    0.87773   0.72839   0.57160   0.01267  Uiso   1.00
P1     P     0.00389   0.06061   0.15152   0.01267  Uiso   1.00
P2     P     0.50389   0.56061   0.34848   0.01267  Uiso   1.00
H1     H     0.17160   0.01090   0.26780   0.01267  Uiso   1.00
H2     H     0.25270   0.92880   0.19590   0.01267  Uiso   1.00
H3     H     0.87490   0.26750   0.14610   0.01267  Uiso   1.00
H4     H     0.92210   0.23100   0.23560   0.01267  Uiso   1.00
H5     H     0.16030   0.99480   0.03520   0.01267  Uiso   1.00
H6     H     0.02390   0.11250   0.01630   0.01267  Uiso   1.00
H7     H     0.54880   0.16790   0.11290   0.01267  Uiso   1.00
H8     H     0.46700   0.02860   0.09880   0.01267  Uiso   1.00
H9     H     0.12290   0.32890   0.05680   0.01267  Uiso   1.00
H10    H     0.33490   0.35510   0.08610   0.01267  Uiso   1.00
H11    H     0.25710   0.23380   0.28110   0.01267  Uiso   1.00
H12    H     0.41940   0.29590   0.22790   0.01267  Uiso   1.00
H13    H     0.67160   0.51090   0.23220   0.01267  Uiso   1.00
H14    H     0.75270   0.42880   0.30410   0.01267  Uiso   1.00
H15    H     0.37490   0.76750   0.35390   0.01267  Uiso   1.00
H16    H     0.42210   0.73100   0.26440   0.01267  Uiso   1.00
H17    H     0.66030   0.49480   0.46480   0.01267  Uiso   1.00
H18    H     0.52390   0.61250   0.48370   0.01267  Uiso   1.00
H19    H     0.04880   0.66790   0.38710   0.01267  Uiso   1.00
H20    H     0.96700   0.52860   0.40120   0.01267  Uiso   1.00
H21    H     0.62290   0.82890   0.44320   0.01267  Uiso   1.00
H22    H     0.83490   0.85510   0.41390   0.01267  Uiso   1.00
H23    H     0.75710   0.73380   0.21890   0.01267  Uiso   1.00
H24    H     0.91940   0.79590   0.27210   0.01267  Uiso   1.00
C1     C     0.20890   0.01420   0.21170   0.01267  Uiso   1.00
C2     C     0.97000   0.22710   0.18090   0.01267  Uiso   1.00
C3     C     0.11680   0.07830   0.05440   0.01267  Uiso   1.00
C4     C     0.43310   0.11500   0.11640   0.01267  Uiso   1.00
C5     C     0.22590   0.29650   0.09100   0.01267  Uiso   1.00
C6     C     0.30720   0.23940   0.22680   0.01267  Uiso   1.00
C7     C     0.70890   0.51420   0.28830   0.01267  Uiso   1.00
C8     C     0.47000   0.72710   0.31910   0.01267  Uiso   1.00
C9     C     0.61680   0.57830   0.44560   0.01267  Uiso   1.00
C10    C     0.93310   0.61500   0.38360   0.01267  Uiso   1.00
C11    C     0.72590   0.79650   0.40900   0.01267  Uiso   1.00
C12    C     0.80720   0.73940   0.27320   0.01267  Uiso   1.00
N1     N     0.36960   0.10930   0.20087   0.01267  Uiso   1.00
N2     N     0.28540   0.16800   0.06140   0.01267  Uiso   1.00
N3     N     0.15790   0.29770   0.17501   0.01267  Uiso   1.00
N4     N     0.86960   0.60930   0.29913   0.01267  Uiso   1.00
N5     N     0.78540   0.66800   0.43860   0.01267  Uiso   1.00
N6     N     0.65790   0.79770   0.32499   0.01267  Uiso   1.00
O1     O     0.82930   0.97530   0.15552   0.01267  Uiso   1.00
O2     O     0.32930   0.47530   0.34448   0.01267  Uiso   1.00
Ag5    Ag    0.11160   0.98660   0.71543   0.01267  Uiso   1.00
Ag6    Ag    0.87773   0.77161   0.07160   0.01267  Uiso   1.00
Ag7    Ag    0.61160   0.48660   0.78457   0.01267  Uiso   1.00
Ag8    Ag    0.37773   0.27161   0.42840   0.01267  Uiso   1.00
P3     P     0.50389   0.93939   0.84848   0.01267  Uiso   1.00
P4     P     0.00389   0.43939   0.65152   0.01267  Uiso   1.00
H25    H     0.67160   0.98910   0.73220   0.01267  Uiso   1.00
H26    H     0.75270   0.07120   0.80410   0.01267  Uiso   1.00
H27    H     0.37490   0.73250   0.85390   0.01267  Uiso   1.00
H28    H     0.42210   0.76900   0.76440   0.01267  Uiso   1.00
H29    H     0.66030   0.00520   0.96480   0.01267  Uiso   1.00
H30    H     0.52390   0.88750   0.98370   0.01267  Uiso   1.00
H31    H     0.04880   0.83210   0.88710   0.01267  Uiso   1.00
H32    H     0.96700   0.97140   0.90120   0.01267  Uiso   1.00
H33    H     0.62290   0.67110   0.94320   0.01267  Uiso   1.00
H34    H     0.83490   0.64490   0.91390   0.01267  Uiso   1.00
H35    H     0.75710   0.76620   0.71890   0.01267  Uiso   1.00
H36    H     0.91940   0.70410   0.77210   0.01267  Uiso   1.00
H37    H     0.17160   0.48910   0.76780   0.01267  Uiso   1.00
H38    H     0.25270   0.57120   0.69590   0.01267  Uiso   1.00
H39    H     0.87490   0.23250   0.64610   0.01267  Uiso   1.00
H40    H     0.92210   0.26900   0.73560   0.01267  Uiso   1.00
H41    H     0.16030   0.50520   0.53520   0.01267  Uiso   1.00
H42    H     0.02390   0.38750   0.51630   0.01267  Uiso   1.00
H43    H     0.54880   0.33210   0.61290   0.01267  Uiso   1.00
H44    H     0.46700   0.47140   0.59880   0.01267  Uiso   1.00
H45    H     0.12290   0.17110   0.55680   0.01267  Uiso   1.00
H46    H     0.33490   0.14490   0.58610   0.01267  Uiso   1.00
H47    H     0.25710   0.26620   0.78110   0.01267  Uiso   1.00
H48    H     0.41940   0.20410   0.72790   0.01267  Uiso   1.00
C13    C     0.70890   0.98580   0.78830   0.01267  Uiso   1.00
C14    C     0.47000   0.77290   0.81910   0.01267  Uiso   1.00
C15    C     0.61680   0.92170   0.94560   0.01267  Uiso   1.00
C16    C     0.93310   0.88500   0.88360   0.01267  Uiso   1.00
C17    C     0.72590   0.70350   0.90900   0.01267  Uiso   1.00
C18    C     0.80720   0.76060   0.77320   0.01267  Uiso   1.00
C19    C     0.20890   0.48580   0.71170   0.01267  Uiso   1.00
C20    C     0.97000   0.27290   0.68090   0.01267  Uiso   1.00
C21    C     0.11680   0.42170   0.55440   0.01267  Uiso   1.00
C22    C     0.43310   0.38500   0.61640   0.01267  Uiso   1.00
C23    C     0.22590   0.20350   0.59100   0.01267  Uiso   1.00
C24    C     0.30720   0.26060   0.72680   0.01267  Uiso   1.00
N7     N     0.86960   0.89070   0.79913   0.01267  Uiso   1.00
N8     N     0.78540   0.83200   0.93860   0.01267  Uiso   1.00
N9     N     0.65790   0.70230   0.82499   0.01267  Uiso   1.00
N10    N     0.36960   0.39070   0.70087   0.01267  Uiso   1.00
N11    N     0.28540   0.33200   0.56140   0.01267  Uiso   1.00
N12    N     0.15790   0.20230   0.67501   0.01267  Uiso   1.00
O3     O     0.32930   0.02470   0.84448   0.01267  Uiso   1.00
O4     O     0.82930   0.52470   0.65552   0.01267  Uiso   1.00
