data_AVUPIR_clean_h
_audit_creation_date              2014-07-02
_audit_creation_method            'Materials Studio'
_symmetry_space_group_name_H-M    'P1'
_symmetry_Int_Tables_number       1
_symmetry_cell_setting            triclinic
loop_
_symmetry_equiv_pos_as_xyz
  x,y,z
_cell_length_a                    9.5728
_cell_length_b                    11.9464
_cell_length_c                    11.9464
_cell_angle_alpha                 66.8598
_cell_angle_beta                  74.5079
_cell_angle_gamma                 105.4920
loop_
_atom_site_label
_atom_site_type_symbol
_atom_site_fract_x
_atom_site_fract_y
_atom_site_fract_z
_atom_site_U_iso_or_equiv
_atom_site_adp_type
_atom_site_occupancy
Zr1    Zr    0.00000   0.00000   0.00000   0.01267  Uiso   1.00
Zr2    Zr    0.50000   0.00000  -0.00000   0.01267  Uiso   1.00
P1     P     0.77420   0.90890   0.84290   0.01267  Uiso   1.00
P2     P     0.61710   0.84290   0.24820   0.01267  Uiso   1.00
P3     P     0.86530   0.24820   0.90890   0.01267  Uiso   1.00
P4     P     0.22580   0.09110   0.15710   0.01267  Uiso   1.00
P5     P     0.38290   0.15710   0.75180   0.01267  Uiso   1.00
P6     P     0.13470   0.75180   0.09110   0.01267  Uiso   1.00
C1     C     0.73210   0.73390   0.95440   0.01267  Uiso   1.00
C2     C     0.68330   0.51410   0.97430   0.01267  Uiso   1.00
C3     C     0.46980   0.61390   0.95710   0.01267  Uiso   1.00
C4     C     0.68650   0.95440   0.31170   0.01267  Uiso   1.00
C5     C     0.65760   0.97430   0.51160   0.01267  Uiso   1.00
C6     C     0.42690   0.95710   0.42900   0.01267  Uiso   1.00
C7     C     0.99820   0.31170   0.73390   0.01267  Uiso   1.00
C8     C     0.16920   0.51160   0.51410   0.01267  Uiso   1.00
C9     C     0.85590   0.42900   0.61390   0.01267  Uiso   1.00
C10    C     0.26790   0.26610   0.04560   0.01267  Uiso   1.00
C11    C     0.31670   0.48590   0.02570   0.01267  Uiso   1.00
C12    C     0.53020   0.38610   0.04290   0.01267  Uiso   1.00
C13    C     0.31350   0.04560   0.68830   0.01267  Uiso   1.00
C14    C     0.34240   0.02570   0.48840   0.01267  Uiso   1.00
C15    C     0.57310   0.04290   0.57100   0.01267  Uiso   1.00
C16    C     0.00180   0.68830   0.26610   0.01267  Uiso   1.00
C17    C     0.83080   0.48840   0.48590   0.01267  Uiso   1.00
C18    C     0.14410   0.57100   0.38610   0.01267  Uiso   1.00
N1     N     0.62080   0.62000   0.96110   0.01267  Uiso   1.00
N2     N     0.58190   0.96110   0.41890   0.01267  Uiso   1.00
N3     N     0.00080   0.41890   0.62000   0.01267  Uiso   1.00
N4     N     0.37920   0.38000   0.03890   0.01267  Uiso   1.00
N5     N     0.41810   0.03890   0.58110   0.01267  Uiso   1.00
N6     N     0.99920   0.58110   0.38000   0.01267  Uiso   1.00
O1     O     0.63490   0.93830   0.90980   0.01267  Uiso   1.00
O2     O     0.80490   0.93340   0.69610   0.01267  Uiso   1.00
O3     O     0.91320   0.98370   0.87360   0.01267  Uiso   1.00
O4     O     0.54470   0.90980   0.15190   0.01267  Uiso   1.00
O5     O     0.50100   0.69610   0.37050   0.01267  Uiso   1.00
O6     O     0.78680   0.87360   0.14270   0.01267  Uiso   1.00
O7     O     0.69660   0.15190   0.93830   0.01267  Uiso   1.00
O8     O     0.87150   0.37050   0.93340   0.01267  Uiso   1.00
O9     O     0.92950   0.14270   0.98370   0.01267  Uiso   1.00
O10    O     0.36510   0.06170   0.09020   0.01267  Uiso   1.00
O11    O     0.19510   0.06660   0.30390   0.01267  Uiso   1.00
O12    O     0.08680   0.01630   0.12640   0.01267  Uiso   1.00
O13    O     0.45530   0.09020   0.84810   0.01267  Uiso   1.00
O14    O     0.49900   0.30390   0.62950   0.01267  Uiso   1.00
O15    O     0.21320   0.12640   0.85730   0.01267  Uiso   1.00
O16    O     0.30340   0.84810   0.06170   0.01267  Uiso   1.00
O17    O     0.12850   0.62950   0.06660   0.01267  Uiso   1.00
O18    O     0.07050   0.85730   0.01630   0.01267  Uiso   1.00
H1     H     0.79538   0.71057   0.02335   0.01267  Uiso   1.00
H2     H     0.80438   0.50941   0.94764   0.01267  Uiso   1.00
H3     H     0.47053   0.71551   0.89653   0.01267  Uiso   1.00
H4     H     0.75202   0.94764   0.54295   0.01267  Uiso   1.00
H5     H     0.36706   0.89653   0.38796   0.01267  Uiso   1.00
H6     H     0.29497   0.54295   0.50941   0.01267  Uiso   1.00
H7     H     0.75502   0.38796   0.71551   0.01267  Uiso   1.00
H8     H     0.19562   0.49059   0.05236   0.01267  Uiso   1.00
H9     H     0.52947   0.28449   0.10347   0.01267  Uiso   1.00
H10    H     0.24798   0.05236   0.45705   0.01267  Uiso   1.00
H11    H     0.63294   0.10347   0.61204   0.01267  Uiso   1.00
H12    H     0.70503   0.45705   0.49059   0.01267  Uiso   1.00
H13    H     0.24498   0.61204   0.28449   0.01267  Uiso   1.00
