data_AXOCEW_clean
_audit_creation_date              2014-07-02
_audit_creation_method            'Materials Studio'
_symmetry_space_group_name_H-M    'P1'
_symmetry_Int_Tables_number       1
_symmetry_cell_setting            triclinic
loop_
_symmetry_equiv_pos_as_xyz
  x,y,z
_cell_length_a                    7.2920
_cell_length_b                    18.8200
_cell_length_c                    20.5186
_cell_angle_alpha                 106.9830
_cell_angle_beta                  90.0000
_cell_angle_gamma                 90.0000
loop_
_atom_site_label
_atom_site_type_symbol
_atom_site_fract_x
_atom_site_fract_y
_atom_site_fract_z
_atom_site_U_iso_or_equiv
_atom_site_adp_type
_atom_site_occupancy
Zn1    Zn    0.64621   0.52765   0.97776   0.01267  Uiso   1.00
Zn2    Zn    0.64621   0.97235   0.52224   0.01267  Uiso   1.00
Zn3    Zn    0.35379   0.47235   0.02224   0.01267  Uiso   1.00
Zn4    Zn    0.35379   0.02765   0.47776   0.01267  Uiso   1.00
H1     H     0.96820   0.58780   0.16270   0.01267  Uiso   1.00
H2     H     0.09280   0.60870   0.27140   0.01267  Uiso   1.00
H3     H     0.62500   0.54150   0.33860   0.01267  Uiso   1.00
H4     H     0.49710   0.52420   0.23060   0.01267  Uiso   1.00
H5     H     0.86410   0.71900   0.38170   0.01267  Uiso   1.00
H6     H     0.00070   0.83440   0.41860   0.01267  Uiso   1.00
H7     H     0.44340   0.74460   0.47590   0.01267  Uiso   1.00
H8     H     0.30290   0.62940   0.44480   0.01267  Uiso   1.00
H9     H     0.96820   0.91220   0.33730   0.01267  Uiso   1.00
H10    H     0.09280   0.89130   0.22860   0.01267  Uiso   1.00
H11    H     0.62500   0.95850   0.16140   0.01267  Uiso   1.00
H12    H     0.49710   0.97580   0.26940   0.01267  Uiso   1.00
H13    H     0.86410   0.78100   0.11830   0.01267  Uiso   1.00
H14    H     0.00070   0.66560   0.08140   0.01267  Uiso   1.00
H15    H     0.44340   0.75540   0.02410   0.01267  Uiso   1.00
H16    H     0.30290   0.87060   0.05520   0.01267  Uiso   1.00
H17    H     0.03180   0.41220   0.83730   0.01267  Uiso   1.00
H18    H     0.90720   0.39130   0.72860   0.01267  Uiso   1.00
H19    H     0.37500   0.45850   0.66140   0.01267  Uiso   1.00
H20    H     0.50290   0.47580   0.76940   0.01267  Uiso   1.00
H21    H     0.13590   0.28100   0.61830   0.01267  Uiso   1.00
H22    H     0.99930   0.16560   0.58140   0.01267  Uiso   1.00
H23    H     0.55660   0.25540   0.52410   0.01267  Uiso   1.00
H24    H     0.69710   0.37060   0.55520   0.01267  Uiso   1.00
H25    H     0.03180   0.08780   0.66270   0.01267  Uiso   1.00
H26    H     0.90720   0.10870   0.77140   0.01267  Uiso   1.00
H27    H     0.37500   0.04150   0.83860   0.01267  Uiso   1.00
H28    H     0.50290   0.02420   0.73060   0.01267  Uiso   1.00
H29    H     0.13590   0.21900   0.88170   0.01267  Uiso   1.00
H30    H     0.99930   0.33440   0.91860   0.01267  Uiso   1.00
H31    H     0.55660   0.24460   0.97590   0.01267  Uiso   1.00
H32    H     0.69710   0.12940   0.94480   0.01267  Uiso   1.00
C1     C     0.63840   0.53710   0.11620   0.01267  Uiso   1.00
C2     C     0.71950   0.55410   0.18690   0.01267  Uiso   1.00
C3     C     0.89930   0.57900   0.19770   0.01267  Uiso   1.00
C4     C     0.97390   0.59050   0.26290   0.01267  Uiso   1.00
C5     C     0.87480   0.57550   0.31530   0.01267  Uiso   1.00
C6     C     0.69390   0.55080   0.30380   0.01267  Uiso   1.00
C7     C     0.61760   0.54040   0.23880   0.01267  Uiso   1.00
C8     C     0.97260   0.58430   0.38400   0.01267  Uiso   1.00
C9     C     0.84400   0.58290   0.44250   0.01267  Uiso   1.00
C10    C     0.10780   0.51900   0.37210   0.01267  Uiso   1.00
C11    C     0.07190   0.66070   0.40760   0.01267  Uiso   1.00
C12    C     0.98080   0.72370   0.40080   0.01267  Uiso   1.00
C13    C     0.06360   0.79280   0.42250   0.01267  Uiso   1.00
C14    C     0.23750   0.80100   0.44960   0.01267  Uiso   1.00
C15    C     0.32610   0.73960   0.45730   0.01267  Uiso   1.00
C16    C     0.24270   0.67010   0.43760   0.01267  Uiso   1.00
C17    C     0.32760   0.87660   0.47050   0.01267  Uiso   1.00
C18    C     0.63840   0.96290   0.38380   0.01267  Uiso   1.00
C19    C     0.71950   0.94590   0.31310   0.01267  Uiso   1.00
C20    C     0.89930   0.92100   0.30230   0.01267  Uiso   1.00
C21    C     0.97390   0.90950   0.23710   0.01267  Uiso   1.00
C22    C     0.87480   0.92450   0.18470   0.01267  Uiso   1.00
C23    C     0.69390   0.94920   0.19620   0.01267  Uiso   1.00
C24    C     0.61760   0.95960   0.26120   0.01267  Uiso   1.00
C25    C     0.97260   0.91570   0.11600   0.01267  Uiso   1.00
C26    C     0.84400   0.91710   0.05750   0.01267  Uiso   1.00
C27    C     0.10780   0.98100   0.12790   0.01267  Uiso   1.00
C28    C     0.07190   0.83930   0.09240   0.01267  Uiso   1.00
C29    C     0.98080   0.77630   0.09920   0.01267  Uiso   1.00
C30    C     0.06360   0.70720   0.07750   0.01267  Uiso   1.00
C31    C     0.23750   0.69900   0.05040   0.01267  Uiso   1.00
C32    C     0.32610   0.76040   0.04270   0.01267  Uiso   1.00
C33    C     0.24270   0.82990   0.06240   0.01267  Uiso   1.00
C34    C     0.32760   0.62340   0.02950   0.01267  Uiso   1.00
C35    C     0.36160   0.46290   0.88380   0.01267  Uiso   1.00
C36    C     0.28050   0.44590   0.81310   0.01267  Uiso   1.00
C37    C     0.10070   0.42100   0.80230   0.01267  Uiso   1.00
C38    C     0.02610   0.40950   0.73710   0.01267  Uiso   1.00
C39    C     0.12520   0.42450   0.68470   0.01267  Uiso   1.00
C40    C     0.30610   0.44920   0.69620   0.01267  Uiso   1.00
C41    C     0.38240   0.45960   0.76120   0.01267  Uiso   1.00
C42    C     0.02740   0.41570   0.61600   0.01267  Uiso   1.00
C43    C     0.15600   0.41710   0.55750   0.01267  Uiso   1.00
C44    C     0.89220   0.48100   0.62790   0.01267  Uiso   1.00
C45    C     0.92810   0.33930   0.59240   0.01267  Uiso   1.00
C46    C     0.01920   0.27630   0.59920   0.01267  Uiso   1.00
C47    C     0.93640   0.20720   0.57750   0.01267  Uiso   1.00
C48    C     0.76250   0.19900   0.55040   0.01267  Uiso   1.00
C49    C     0.67390   0.26040   0.54270   0.01267  Uiso   1.00
C50    C     0.75730   0.32990   0.56240   0.01267  Uiso   1.00
C51    C     0.67240   0.12340   0.52950   0.01267  Uiso   1.00
C52    C     0.36160   0.03710   0.61620   0.01267  Uiso   1.00
C53    C     0.28050   0.05410   0.68690   0.01267  Uiso   1.00
C54    C     0.10070   0.07900   0.69770   0.01267  Uiso   1.00
C55    C     0.02610   0.09050   0.76290   0.01267  Uiso   1.00
C56    C     0.12520   0.07550   0.81530   0.01267  Uiso   1.00
C57    C     0.30610   0.05080   0.80380   0.01267  Uiso   1.00
C58    C     0.38240   0.04040   0.73880   0.01267  Uiso   1.00
C59    C     0.02740   0.08430   0.88400   0.01267  Uiso   1.00
C60    C     0.15600   0.08290   0.94250   0.01267  Uiso   1.00
C61    C     0.89220   0.01900   0.87210   0.01267  Uiso   1.00
C62    C     0.92810   0.16070   0.90760   0.01267  Uiso   1.00
C63    C     0.01920   0.22370   0.90080   0.01267  Uiso   1.00
C64    C     0.93640   0.29280   0.92250   0.01267  Uiso   1.00
C65    C     0.76250   0.30100   0.94960   0.01267  Uiso   1.00
C66    C     0.67390   0.23960   0.95730   0.01267  Uiso   1.00
C67    C     0.75730   0.17010   0.93760   0.01267  Uiso   1.00
C68    C     0.67240   0.37660   0.97050   0.01267  Uiso   1.00
O1     O     0.72810   0.55410   0.07200   0.01267  Uiso   1.00
O2     O     0.48390   0.50570   0.10870   0.01267  Uiso   1.00
O3     O     0.48470   0.88150   0.49680   0.01267  Uiso   1.00
O4     O     0.24250   0.92950   0.45810   0.01267  Uiso   1.00
O5     O     0.72810   0.94590   0.42800   0.01267  Uiso   1.00
O6     O     0.48390   0.99430   0.39130   0.01267  Uiso   1.00
O7     O     0.48470   0.61850   0.00320   0.01267  Uiso   1.00
O8     O     0.24250   0.57050   0.04190   0.01267  Uiso   1.00
O9     O     0.27190   0.44590   0.92800   0.01267  Uiso   1.00
O10    O     0.51610   0.49430   0.89130   0.01267  Uiso   1.00
O11    O     0.51530   0.11850   0.50320   0.01267  Uiso   1.00
O12    O     0.75750   0.07050   0.54190   0.01267  Uiso   1.00
O13    O     0.27190   0.05410   0.57200   0.01267  Uiso   1.00
O14    O     0.51610   0.00570   0.60870   0.01267  Uiso   1.00
O15    O     0.51530   0.38150   0.99680   0.01267  Uiso   1.00
O16    O     0.75750   0.42950   0.95810   0.01267  Uiso   1.00
F1     F     0.76730   0.51530   0.43300   0.01267  Uiso   1.00
F2     F     0.92780   0.60050   0.50280   0.01267  Uiso   1.00
F3     F     0.70570   0.63090   0.44840   0.01267  Uiso   1.00
F4     F     0.18200   0.51130   0.42920   0.01267  Uiso   1.00
F5     F     0.24830   0.52410   0.33120   0.01267  Uiso   1.00
F6     F     0.02510   0.45410   0.34080   0.01267  Uiso   1.00
F7     F     0.76730   0.98470   0.06700   0.01267  Uiso   1.00
F8     F     0.92780   0.89950   0.99720   0.01267  Uiso   1.00
F9     F     0.70570   0.86910   0.05160   0.01267  Uiso   1.00
F10    F     0.18200   0.98870   0.07080   0.01267  Uiso   1.00
F11    F     0.24830   0.97590   0.16880   0.01267  Uiso   1.00
F12    F     0.02510   0.04590   0.15920   0.01267  Uiso   1.00
F13    F     0.23270   0.48470   0.56700   0.01267  Uiso   1.00
F14    F     0.07220   0.39950   0.49720   0.01267  Uiso   1.00
F15    F     0.29430   0.36910   0.55160   0.01267  Uiso   1.00
F16    F     0.81800   0.48870   0.57080   0.01267  Uiso   1.00
F17    F     0.75170   0.47590   0.66880   0.01267  Uiso   1.00
F18    F     0.97490   0.54590   0.65920   0.01267  Uiso   1.00
F19    F     0.23270   0.01530   0.93300   0.01267  Uiso   1.00
F20    F     0.07220   0.10050   0.00280   0.01267  Uiso   1.00
F21    F     0.29430   0.13090   0.94840   0.01267  Uiso   1.00
F22    F     0.81800   0.01130   0.92920   0.01267  Uiso   1.00
F23    F     0.75170   0.02410   0.83120   0.01267  Uiso   1.00
F24    F     0.97490   0.95410   0.84080   0.01267  Uiso   1.00
