data_BEKYUM_clean
_audit_creation_date              2014-07-02
_audit_creation_method            'Materials Studio'
_symmetry_space_group_name_H-M    'P1'
_symmetry_Int_Tables_number       1
_symmetry_cell_setting            triclinic
loop_
_symmetry_equiv_pos_as_xyz
  x,y,z
_cell_length_a                    11.7279
_cell_length_b                    11.7279
_cell_length_c                    12.2980
_cell_angle_alpha                 71.7820
_cell_angle_beta                  71.7820
_cell_angle_gamma                 77.4280
loop_
_atom_site_label
_atom_site_type_symbol
_atom_site_fract_x
_atom_site_fract_y
_atom_site_fract_z
_atom_site_U_iso_or_equiv
_atom_site_adp_type
_atom_site_occupancy
K1     K     0.72900   0.26980   0.86780   0.01267  Uiso   1.00
K2     K     0.73020   0.27100   0.63220   0.01267  Uiso   1.00
K3     K     0.27100   0.73020   0.13220   0.01267  Uiso   1.00
K4     K     0.26980   0.72900   0.36780   0.01267  Uiso   1.00
Cr1    Cr    0.20538   0.21518   0.47463   0.01267  Uiso   1.00
Cr2    Cr    0.78482   0.79462   0.02537   0.01267  Uiso   1.00
Cr3    Cr    0.79462   0.78482   0.52537   0.01267  Uiso   1.00
Cr4    Cr    0.21518   0.20538   0.97463   0.01267  Uiso   1.00
Ag1    Ag    0.95248   0.55658   0.74462   0.01267  Uiso   1.00
Ag2    Ag    0.88783   0.26721   0.12852   0.01267  Uiso   1.00
Ag3    Ag    0.44342   0.04752   0.75538   0.01267  Uiso   1.00
Ag4    Ag    0.73279   0.11217   0.37148   0.01267  Uiso   1.00
Ag5    Ag    0.04752   0.44342   0.25538   0.01267  Uiso   1.00
Ag6    Ag    0.11217   0.73279   0.87148   0.01267  Uiso   1.00
Ag7    Ag    0.55658   0.95248   0.24462   0.01267  Uiso   1.00
Ag8    Ag    0.26721   0.88783   0.62852   0.01267  Uiso   1.00
Ag9    Ag    0.95800   0.04200   0.75000   0.01267  Uiso   1.00
Ag10   Ag    0.04200   0.95800   0.25000   0.01267  Uiso   1.00
C1     C     0.04130   0.33070   0.63460   0.01267  Uiso   1.00
C2     C     0.12460   0.42900   0.53970   0.01267  Uiso   1.00
C3     C     0.82620   0.55040   0.13100   0.01267  Uiso   1.00
C4     C     0.85670   0.56270   0.99670   0.01267  Uiso   1.00
C5     C     0.03520   0.12820   0.92440   0.01267  Uiso   1.00
C6     C     0.15620   0.06780   0.85740   0.01267  Uiso   1.00
C7     C     0.66930   0.95870   0.86540   0.01267  Uiso   1.00
C8     C     0.57100   0.87540   0.96030   0.01267  Uiso   1.00
C9     C     0.44960   0.17380   0.36900   0.01267  Uiso   1.00
C10    C     0.43730   0.14330   0.50330   0.01267  Uiso   1.00
C11    C     0.87180   0.96480   0.57560   0.01267  Uiso   1.00
C12    C     0.93220   0.84380   0.64260   0.01267  Uiso   1.00
C13    C     0.95870   0.66930   0.36540   0.01267  Uiso   1.00
C14    C     0.87540   0.57100   0.46030   0.01267  Uiso   1.00
C15    C     0.17380   0.44960   0.86900   0.01267  Uiso   1.00
C16    C     0.14330   0.43730   0.00330   0.01267  Uiso   1.00
C17    C     0.96480   0.87180   0.07560   0.01267  Uiso   1.00
C18    C     0.84380   0.93220   0.14260   0.01267  Uiso   1.00
C19    C     0.33070   0.04130   0.13460   0.01267  Uiso   1.00
C20    C     0.42900   0.12460   0.03970   0.01267  Uiso   1.00
C21    C     0.55040   0.82620   0.63100   0.01267  Uiso   1.00
C22    C     0.56270   0.85670   0.49670   0.01267  Uiso   1.00
C23    C     0.12820   0.03520   0.42440   0.01267  Uiso   1.00
C24    C     0.06780   0.15620   0.35740   0.01267  Uiso   1.00
O1     O     0.06860   0.22880   0.61560   0.01267  Uiso   1.00
O2     O     0.20280   0.38580   0.46020   0.01267  Uiso   1.00
O3     O     0.96240   0.36100   0.71500   0.01267  Uiso   1.00
O4     O     0.10610   0.53130   0.55240   0.01267  Uiso   1.00
O5     O     0.78840   0.64960   0.16060   0.01267  Uiso   1.00
O6     O     0.84140   0.67240   0.93430   0.01267  Uiso   1.00
O7     O     0.84270   0.45070   0.19690   0.01267  Uiso   1.00
O8     O     0.89570   0.47510   0.95780   0.01267  Uiso   1.00
O9     O     0.04580   0.18860   0.99010   0.01267  Uiso   1.00
O10    O     0.25080   0.09600   0.87130   0.01267  Uiso   1.00
O11    O     0.93860   0.11380   0.91560   0.01267  Uiso   1.00
O12    O     0.15860   0.99820   0.79960   0.01267  Uiso   1.00
O13    O     0.77120   0.93140   0.88440   0.01267  Uiso   1.00
O14    O     0.61420   0.79720   0.03980   0.01267  Uiso   1.00
O15    O     0.63900   0.03760   0.78500   0.01267  Uiso   1.00
O16    O     0.46870   0.89390   0.94760   0.01267  Uiso   1.00
O17    O     0.35040   0.21160   0.33940   0.01267  Uiso   1.00
O18    O     0.32760   0.15860   0.56570   0.01267  Uiso   1.00
O19    O     0.54930   0.15730   0.30310   0.01267  Uiso   1.00
O20    O     0.52490   0.10430   0.54220   0.01267  Uiso   1.00
O21    O     0.81140   0.95420   0.50990   0.01267  Uiso   1.00
O22    O     0.90400   0.74920   0.62870   0.01267  Uiso   1.00
O23    O     0.88620   0.06140   0.58440   0.01267  Uiso   1.00
O24    O     0.00180   0.84140   0.70040   0.01267  Uiso   1.00
O25    O     0.93140   0.77120   0.38440   0.01267  Uiso   1.00
O26    O     0.79720   0.61420   0.53980   0.01267  Uiso   1.00
O27    O     0.03760   0.63900   0.28500   0.01267  Uiso   1.00
O28    O     0.89390   0.46870   0.44760   0.01267  Uiso   1.00
O29    O     0.21160   0.35040   0.83940   0.01267  Uiso   1.00
O30    O     0.15860   0.32760   0.06570   0.01267  Uiso   1.00
O31    O     0.15730   0.54930   0.80310   0.01267  Uiso   1.00
O32    O     0.10430   0.52490   0.04220   0.01267  Uiso   1.00
O33    O     0.95420   0.81140   0.00990   0.01267  Uiso   1.00
O34    O     0.74920   0.90400   0.12870   0.01267  Uiso   1.00
O35    O     0.06140   0.88620   0.08440   0.01267  Uiso   1.00
O36    O     0.84140   0.00180   0.20040   0.01267  Uiso   1.00
O37    O     0.22880   0.06860   0.11560   0.01267  Uiso   1.00
O38    O     0.38580   0.20280   0.96020   0.01267  Uiso   1.00
O39    O     0.36100   0.96240   0.21500   0.01267  Uiso   1.00
O40    O     0.53130   0.10610   0.05240   0.01267  Uiso   1.00
O41    O     0.64960   0.78840   0.66060   0.01267  Uiso   1.00
O42    O     0.67240   0.84140   0.43430   0.01267  Uiso   1.00
O43    O     0.45070   0.84270   0.69690   0.01267  Uiso   1.00
O44    O     0.47510   0.89570   0.45780   0.01267  Uiso   1.00
O45    O     0.18860   0.04580   0.49010   0.01267  Uiso   1.00
O46    O     0.09600   0.25080   0.37130   0.01267  Uiso   1.00
O47    O     0.11380   0.93860   0.41560   0.01267  Uiso   1.00
O48    O     0.99820   0.15860   0.29960   0.01267  Uiso   1.00
