data_BEKZEX01_clean
_audit_creation_date              2014-07-02
_audit_creation_method            'Materials Studio'
_symmetry_space_group_name_H-M    'P1'
_symmetry_Int_Tables_number       1
_symmetry_cell_setting            triclinic
loop_
_symmetry_equiv_pos_as_xyz
  x,y,z
_cell_length_a                    11.7260
_cell_length_b                    11.7260
_cell_length_c                    12.3790
_cell_angle_alpha                 72.2101
_cell_angle_beta                  72.2101
_cell_angle_gamma                 77.1235
loop_
_atom_site_label
_atom_site_type_symbol
_atom_site_fract_x
_atom_site_fract_y
_atom_site_fract_z
_atom_site_U_iso_or_equiv
_atom_site_adp_type
_atom_site_occupancy
Cs1    Cs    0.70570   0.27670   0.86020   0.01267  Uiso   1.00
Cs2    Cs    0.72330   0.29430   0.63980   0.01267  Uiso   1.00
Cs3    Cs    0.29430   0.72330   0.13980   0.01267  Uiso   1.00
Cs4    Cs    0.27670   0.70570   0.36020   0.01267  Uiso   1.00
Cr1    Cr    0.20513   0.21387   0.47614   0.01267  Uiso   1.00
Cr2    Cr    0.78613   0.79487   0.02386   0.01267  Uiso   1.00
Cr3    Cr    0.79487   0.78613   0.52386   0.01267  Uiso   1.00
Cr4    Cr    0.21387   0.20513   0.97614   0.01267  Uiso   1.00
Ag1    Ag    0.94910   0.55434   0.74462   0.01267  Uiso   1.00
Ag2    Ag    0.11254   0.73208   0.87525   0.01267  Uiso   1.00
Ag3    Ag    0.44566   0.05090   0.75538   0.01267  Uiso   1.00
Ag4    Ag    0.26792   0.88746   0.62475   0.01267  Uiso   1.00
Ag5    Ag    0.05090   0.44566   0.25538   0.01267  Uiso   1.00
Ag6    Ag    0.88746   0.26792   0.12475   0.01267  Uiso   1.00
Ag7    Ag    0.55434   0.94910   0.24462   0.01267  Uiso   1.00
Ag8    Ag    0.73208   0.11254   0.37525   0.01267  Uiso   1.00
Ag9    Ag    0.96263   0.03737   0.75000   0.01267  Uiso   1.00
Ag10   Ag    0.03737   0.96263   0.25000   0.01267  Uiso   1.00
C1     C     0.04120   0.33060   0.63550   0.01267  Uiso   1.00
C2     C     0.12090   0.42550   0.54550   0.01267  Uiso   1.00
C3     C     0.44960   0.17140   0.37270   0.01267  Uiso   1.00
C4     C     0.43670   0.14310   0.50470   0.01267  Uiso   1.00
C5     C     0.12670   0.03550   0.42490   0.01267  Uiso   1.00
C6     C     0.06580   0.15880   0.35930   0.01267  Uiso   1.00
C7     C     0.66940   0.95880   0.86450   0.01267  Uiso   1.00
C8     C     0.57450   0.87910   0.95450   0.01267  Uiso   1.00
C9     C     0.82860   0.55040   0.12730   0.01267  Uiso   1.00
C10    C     0.85690   0.56330   0.99530   0.01267  Uiso   1.00
C11    C     0.96450   0.87330   0.07510   0.01267  Uiso   1.00
C12    C     0.84120   0.93420   0.14070   0.01267  Uiso   1.00
C13    C     0.95880   0.66940   0.36450   0.01267  Uiso   1.00
C14    C     0.87910   0.57450   0.45450   0.01267  Uiso   1.00
C15    C     0.55040   0.82860   0.62730   0.01267  Uiso   1.00
C16    C     0.56330   0.85690   0.49530   0.01267  Uiso   1.00
C17    C     0.87330   0.96450   0.57510   0.01267  Uiso   1.00
C18    C     0.93420   0.84120   0.64070   0.01267  Uiso   1.00
C19    C     0.33060   0.04120   0.13550   0.01267  Uiso   1.00
C20    C     0.42550   0.12090   0.04550   0.01267  Uiso   1.00
C21    C     0.17140   0.44960   0.87270   0.01267  Uiso   1.00
C22    C     0.14310   0.43670   0.00470   0.01267  Uiso   1.00
C23    C     0.03550   0.12670   0.92490   0.01267  Uiso   1.00
C24    C     0.15880   0.06580   0.85930   0.01267  Uiso   1.00
O1     O     0.06960   0.22600   0.61300   0.01267  Uiso   1.00
O2     O     0.20190   0.38450   0.46480   0.01267  Uiso   1.00
O3     O     0.95770   0.35830   0.71660   0.01267  Uiso   1.00
O4     O     0.10370   0.52870   0.55790   0.01267  Uiso   1.00
O5     O     0.34920   0.21100   0.34300   0.01267  Uiso   1.00
O6     O     0.32650   0.15750   0.56800   0.01267  Uiso   1.00
O7     O     0.15620   0.54840   0.80620   0.01267  Uiso   1.00
O8     O     0.89440   0.47380   0.95590   0.01267  Uiso   1.00
O9     O     0.18700   0.04620   0.48890   0.01267  Uiso   1.00
O10    O     0.09530   0.25050   0.37230   0.01267  Uiso   1.00
O11    O     0.88820   0.06080   0.58620   0.01267  Uiso   1.00
O12    O     0.00360   0.83780   0.69940   0.01267  Uiso   1.00
O13    O     0.30620   0.70400   0.89820   0.01267  Uiso   1.00
O14    O     0.77400   0.93040   0.88700   0.01267  Uiso   1.00
O15    O     0.61550   0.79810   0.03520   0.01267  Uiso   1.00
O16    O     0.64170   0.04230   0.78340   0.01267  Uiso   1.00
O17    O     0.47130   0.89630   0.94210   0.01267  Uiso   1.00
O18    O     0.78900   0.65080   0.15700   0.01267  Uiso   1.00
O19    O     0.84250   0.67350   0.93200   0.01267  Uiso   1.00
O20    O     0.45160   0.84380   0.69380   0.01267  Uiso   1.00
O21    O     0.52620   0.10560   0.54410   0.01267  Uiso   1.00
O22    O     0.95380   0.81300   0.01110   0.01267  Uiso   1.00
O23    O     0.74950   0.90470   0.12770   0.01267  Uiso   1.00
O24    O     0.93920   0.11180   0.91380   0.01267  Uiso   1.00
O25    O     0.16220   0.99640   0.80060   0.01267  Uiso   1.00
O26    O     0.29600   0.69380   0.60180   0.01267  Uiso   1.00
O27    O     0.93040   0.77400   0.38700   0.01267  Uiso   1.00
O28    O     0.79810   0.61550   0.53520   0.01267  Uiso   1.00
O29    O     0.04230   0.64170   0.28340   0.01267  Uiso   1.00
O30    O     0.89630   0.47130   0.44210   0.01267  Uiso   1.00
O31    O     0.65080   0.78900   0.65700   0.01267  Uiso   1.00
O32    O     0.67350   0.84250   0.43200   0.01267  Uiso   1.00
O33    O     0.84380   0.45160   0.19380   0.01267  Uiso   1.00
O34    O     0.10560   0.52620   0.04410   0.01267  Uiso   1.00
O35    O     0.81300   0.95380   0.51110   0.01267  Uiso   1.00
O36    O     0.90470   0.74950   0.62770   0.01267  Uiso   1.00
O37    O     0.11180   0.93920   0.41380   0.01267  Uiso   1.00
O38    O     0.99640   0.16220   0.30060   0.01267  Uiso   1.00
O39    O     0.69380   0.29600   0.10180   0.01267  Uiso   1.00
O40    O     0.22600   0.06960   0.11300   0.01267  Uiso   1.00
O41    O     0.38450   0.20190   0.96480   0.01267  Uiso   1.00
O42    O     0.35830   0.95770   0.21660   0.01267  Uiso   1.00
O43    O     0.52870   0.10370   0.05790   0.01267  Uiso   1.00
O44    O     0.21100   0.34920   0.84300   0.01267  Uiso   1.00
O45    O     0.15750   0.32650   0.06800   0.01267  Uiso   1.00
O46    O     0.54840   0.15620   0.30620   0.01267  Uiso   1.00
O47    O     0.47380   0.89440   0.45590   0.01267  Uiso   1.00
O48    O     0.04620   0.18700   0.98890   0.01267  Uiso   1.00
O49    O     0.25050   0.09530   0.87230   0.01267  Uiso   1.00
O50    O     0.06080   0.88820   0.08620   0.01267  Uiso   1.00
O51    O     0.83780   0.00360   0.19940   0.01267  Uiso   1.00
O52    O     0.70400   0.30620   0.39820   0.01267  Uiso   1.00
