data_BEKZEX_clean
_audit_creation_date              2014-07-02
_audit_creation_method            'Materials Studio'
_symmetry_space_group_name_H-M    'P1'
_symmetry_Int_Tables_number       1
_symmetry_cell_setting            triclinic
loop_
_symmetry_equiv_pos_as_xyz
  x,y,z
_cell_length_a                    11.7276
_cell_length_b                    11.7276
_cell_length_c                    12.3830
_cell_angle_alpha                 72.2157
_cell_angle_beta                  72.2157
_cell_angle_gamma                 77.1670
loop_
_atom_site_label
_atom_site_type_symbol
_atom_site_fract_x
_atom_site_fract_y
_atom_site_fract_z
_atom_site_U_iso_or_equiv
_atom_site_adp_type
_atom_site_occupancy
Cs1    Cs    0.70660   0.27580   0.86080   0.01267  Uiso   1.00
Cs2    Cs    0.72420   0.29340   0.63920   0.01267  Uiso   1.00
Cs3    Cs    0.29340   0.72420   0.13920   0.01267  Uiso   1.00
Cs4    Cs    0.27580   0.70660   0.36080   0.01267  Uiso   1.00
Cr1    Cr    0.20501   0.21379   0.47630   0.01267  Uiso   1.00
Cr2    Cr    0.78621   0.79499   0.02370   0.01267  Uiso   1.00
Cr3    Cr    0.79499   0.78621   0.52370   0.01267  Uiso   1.00
Cr4    Cr    0.21379   0.20501   0.97630   0.01267  Uiso   1.00
Ag1    Ag    0.94946   0.55408   0.74440   0.01267  Uiso   1.00
Ag2    Ag    0.11213   0.73195   0.87602   0.01267  Uiso   1.00
Ag3    Ag    0.44592   0.05054   0.75560   0.01267  Uiso   1.00
Ag4    Ag    0.26805   0.88787   0.62398   0.01267  Uiso   1.00
Ag5    Ag    0.05054   0.44592   0.25560   0.01267  Uiso   1.00
Ag6    Ag    0.88787   0.26805   0.12398   0.01267  Uiso   1.00
Ag7    Ag    0.55408   0.94946   0.24440   0.01267  Uiso   1.00
Ag8    Ag    0.73195   0.11213   0.37602   0.01267  Uiso   1.00
Ag9    Ag    0.96413   0.03587   0.75000   0.01267  Uiso   1.00
Ag10   Ag    0.03587   0.96413   0.25000   0.01267  Uiso   1.00
C1     C     0.04050   0.32970   0.63320   0.01267  Uiso   1.00
C2     C     0.12060   0.42460   0.54570   0.01267  Uiso   1.00
C3     C     0.45120   0.17100   0.37130   0.01267  Uiso   1.00
C4     C     0.43690   0.14210   0.50600   0.01267  Uiso   1.00
C5     C     0.96410   0.87310   0.07560   0.01267  Uiso   1.00
C6     C     0.06530   0.15930   0.35870   0.01267  Uiso   1.00
C7     C     0.67030   0.95950   0.86680   0.01267  Uiso   1.00
C8     C     0.57540   0.87940   0.95430   0.01267  Uiso   1.00
C9     C     0.82900   0.54880   0.12870   0.01267  Uiso   1.00
C10    C     0.85790   0.56310   0.99400   0.01267  Uiso   1.00
C11    C     0.12690   0.03590   0.42440   0.01267  Uiso   1.00
C12    C     0.84070   0.93470   0.14130   0.01267  Uiso   1.00
C13    C     0.95950   0.67030   0.36680   0.01267  Uiso   1.00
C14    C     0.87940   0.57540   0.45430   0.01267  Uiso   1.00
C15    C     0.54880   0.82900   0.62870   0.01267  Uiso   1.00
C16    C     0.56310   0.85790   0.49400   0.01267  Uiso   1.00
C17    C     0.03590   0.12690   0.92440   0.01267  Uiso   1.00
C18    C     0.93470   0.84070   0.64130   0.01267  Uiso   1.00
C19    C     0.32970   0.04050   0.13320   0.01267  Uiso   1.00
C20    C     0.42460   0.12060   0.04570   0.01267  Uiso   1.00
C21    C     0.17100   0.45120   0.87130   0.01267  Uiso   1.00
C22    C     0.14210   0.43690   0.00600   0.01267  Uiso   1.00
C23    C     0.87310   0.96410   0.57560   0.01267  Uiso   1.00
C24    C     0.15930   0.06530   0.85870   0.01267  Uiso   1.00
O1     O     0.06930   0.22690   0.61350   0.01267  Uiso   1.00
O2     O     0.20190   0.38370   0.46550   0.01267  Uiso   1.00
O3     O     0.95860   0.35820   0.71690   0.01267  Uiso   1.00
O4     O     0.10400   0.52880   0.55930   0.01267  Uiso   1.00
O5     O     0.35040   0.21100   0.34360   0.01267  Uiso   1.00
O6     O     0.32740   0.15640   0.56720   0.01267  Uiso   1.00
O7     O     0.15590   0.54790   0.80550   0.01267  Uiso   1.00
O8     O     0.10540   0.52580   0.04520   0.01267  Uiso   1.00
O9     O     0.95400   0.81240   0.01050   0.01267  Uiso   1.00
O10    O     0.09550   0.25170   0.37200   0.01267  Uiso   1.00
O11    O     0.88790   0.06070   0.58630   0.01267  Uiso   1.00
O12    O     0.00240   0.83960   0.69890   0.01267  Uiso   1.00
O13    O     0.29770   0.70930   0.90490   0.01267  Uiso   1.00
O14    O     0.77310   0.93070   0.88650   0.01267  Uiso   1.00
O15    O     0.61630   0.79810   0.03450   0.01267  Uiso   1.00
O16    O     0.64180   0.04140   0.78310   0.01267  Uiso   1.00
O17    O     0.47120   0.89600   0.94070   0.01267  Uiso   1.00
O18    O     0.78900   0.64960   0.15640   0.01267  Uiso   1.00
O19    O     0.84360   0.67260   0.93280   0.01267  Uiso   1.00
O20    O     0.45210   0.84410   0.69450   0.01267  Uiso   1.00
O21    O     0.47420   0.89460   0.45480   0.01267  Uiso   1.00
O22    O     0.18760   0.04600   0.48950   0.01267  Uiso   1.00
O23    O     0.74830   0.90450   0.12800   0.01267  Uiso   1.00
O24    O     0.93930   0.11210   0.91370   0.01267  Uiso   1.00
O25    O     0.16040   0.99760   0.80110   0.01267  Uiso   1.00
O26    O     0.29070   0.70230   0.59510   0.01267  Uiso   1.00
O27    O     0.93070   0.77310   0.38650   0.01267  Uiso   1.00
O28    O     0.79810   0.61630   0.53450   0.01267  Uiso   1.00
O29    O     0.04140   0.64180   0.28310   0.01267  Uiso   1.00
O30    O     0.89600   0.47120   0.44070   0.01267  Uiso   1.00
O31    O     0.64960   0.78900   0.65640   0.01267  Uiso   1.00
O32    O     0.67260   0.84360   0.43280   0.01267  Uiso   1.00
O33    O     0.84410   0.45210   0.19450   0.01267  Uiso   1.00
O34    O     0.89460   0.47420   0.95480   0.01267  Uiso   1.00
O35    O     0.04600   0.18760   0.98950   0.01267  Uiso   1.00
O36    O     0.90450   0.74830   0.62800   0.01267  Uiso   1.00
O37    O     0.11210   0.93930   0.41370   0.01267  Uiso   1.00
O38    O     0.99760   0.16040   0.30110   0.01267  Uiso   1.00
O39    O     0.70230   0.29070   0.09510   0.01267  Uiso   1.00
O40    O     0.22690   0.06930   0.11350   0.01267  Uiso   1.00
O41    O     0.38370   0.20190   0.96550   0.01267  Uiso   1.00
O42    O     0.35820   0.95860   0.21690   0.01267  Uiso   1.00
O43    O     0.52880   0.10400   0.05930   0.01267  Uiso   1.00
O44    O     0.21100   0.35040   0.84360   0.01267  Uiso   1.00
O45    O     0.15640   0.32740   0.06720   0.01267  Uiso   1.00
O46    O     0.54790   0.15590   0.30550   0.01267  Uiso   1.00
O47    O     0.52580   0.10540   0.54520   0.01267  Uiso   1.00
O48    O     0.81240   0.95400   0.51050   0.01267  Uiso   1.00
O49    O     0.25170   0.09550   0.87200   0.01267  Uiso   1.00
O50    O     0.06070   0.88790   0.08630   0.01267  Uiso   1.00
O51    O     0.83960   0.00240   0.19890   0.01267  Uiso   1.00
O52    O     0.70930   0.29770   0.40490   0.01267  Uiso   1.00
