data_BELVAR_charged
_audit_creation_date              2014-07-02
_audit_creation_method            'Materials Studio'
_symmetry_space_group_name_H-M    'P1'
_symmetry_Int_Tables_number       1
_symmetry_cell_setting            triclinic
loop_
_symmetry_equiv_pos_as_xyz
  x,y,z
_cell_length_a                    14.6429
_cell_length_b                    14.6429
_cell_length_c                    32.2715
_cell_angle_alpha                 85.0849
_cell_angle_beta                  79.4287
_cell_angle_gamma                 114.0070
loop_
_atom_site_label
_atom_site_type_symbol
_atom_site_fract_x
_atom_site_fract_y
_atom_site_fract_z
_atom_site_U_iso_or_equiv
_atom_site_adp_type
_atom_site_occupancy
Mn1    Mn    0.90002   0.16124   0.05534   0.01267  Uiso   1.00
Mn2    Mn    0.93673   0.88690   0.87445   0.01267  Uiso   1.00
Mn3    Mn    0.86112   0.09433   0.91691   0.01267  Uiso   1.00
Mn4    Mn    0.71658   0.95536   0.44466   0.01267  Uiso   1.00
Mn5    Mn    0.26135   0.81118   0.62555   0.01267  Uiso   1.00
Mn6    Mn    0.51124   0.77803   0.58309   0.01267  Uiso   1.00
Mn7    Mn    0.09998   0.83876   0.94466   0.01267  Uiso   1.00
Mn8    Mn    0.06327   0.11310   0.12555   0.01267  Uiso   1.00
Mn9    Mn    0.13888   0.90567   0.08309   0.01267  Uiso   1.00
Mn10   Mn    0.28342   0.04464   0.55534   0.01267  Uiso   1.00
Mn11   Mn    0.73865   0.18882   0.37445   0.01267  Uiso   1.00
Mn12   Mn    0.48876   0.22197   0.41691   0.01267  Uiso   1.00
P1     P     0.26717   0.73337   0.89754   0.01267  Uiso   1.00
P2     P     0.27978   0.76654   0.11474   0.01267  Uiso   1.00
P3     P     0.13091   0.16471   0.60246   0.01267  Uiso   1.00
P4     P     0.38128   0.39452   0.38526   0.01267  Uiso   1.00
P5     P     0.73283   0.26663   0.10246   0.01267  Uiso   1.00
P6     P     0.72022   0.23346   0.88526   0.01267  Uiso   1.00
P7     P     0.86909   0.83529   0.39754   0.01267  Uiso   1.00
P8     P     0.61872   0.60548   0.61474   0.01267  Uiso   1.00
H1     H     0.42400   0.91340   0.90820   0.01267  Uiso   1.00
H2     H     0.60130   0.97840   0.90070   0.01267  Uiso   1.00
H3     H     0.58980   0.70250   0.88390   0.01267  Uiso   1.00
H4     H     0.41190   0.63730   0.89080   0.01267  Uiso   1.00
H5     H     0.15320   0.60320   0.97960   0.01267  Uiso   1.00
H6     H     0.05270   0.42940   0.00270   0.01267  Uiso   1.00
H7     H     0.11950   0.38020   0.88150   0.01267  Uiso   1.00
H8     H     0.22410   0.55290   0.85800   0.01267  Uiso   1.00
H9     H     0.12540   0.75130   0.85270   0.01267  Uiso   1.00
H10    H     0.11420   0.76930   0.78110   0.01267  Uiso   1.00
H11    H     0.39660   0.77600   0.74400   0.01267  Uiso   1.00
H12    H     0.40880   0.76070   0.81490   0.01267  Uiso   1.00
H13    H     0.38590   0.83730   0.02820   0.01267  Uiso   1.00
H14    H     0.55590   0.92390   0.98960   0.01267  Uiso   1.00
H15    H     0.65210   0.92850   0.09940   0.01267  Uiso   1.00
H16    H     0.48080   0.83510   0.13870   0.01267  Uiso   1.00
H17    H     0.09430   0.63970   0.09680   0.01267  Uiso   1.00
H18    H     0.01490   0.47310   0.08640   0.01267  Uiso   1.00
H19    H     0.26440   0.43160   0.10200   0.01267  Uiso   1.00
H20    H     0.34810   0.60120   0.10990   0.01267  Uiso   1.00
H21    H     0.21440   0.86790   0.17790   0.01267  Uiso   1.00
H22    H     0.18100   0.84910   0.25070   0.01267  Uiso   1.00
H23    H     0.27860   0.62930   0.25770   0.01267  Uiso   1.00
H24    H     0.32060   0.65190   0.18330   0.01267  Uiso   1.00
H25    H     0.07370   0.01900   0.01670   0.01267  Uiso   1.00
H26    H     0.19260   0.64140   0.35640   0.01267  Uiso   1.00
H27    H     0.97250   0.11000   0.83950   0.01267  Uiso   1.00
H28    H     0.00780   0.23600   0.83220   0.01267  Uiso   1.00
H29    H     0.32160   0.33220   0.59180   0.01267  Uiso   1.00
H30    H     0.37910   0.50200   0.59930   0.01267  Uiso   1.00
H31    H     0.08640   0.47370   0.61610   0.01267  Uiso   1.00
H32    H     0.02810   0.30270   0.60920   0.01267  Uiso   1.00
H33    H     0.08280   0.13280   0.52040   0.01267  Uiso   1.00
H34    H     0.93210   0.05540   0.49730   0.01267  Uiso   1.00
H35    H     0.76170   0.00100   0.61850   0.01267  Uiso   1.00
H36    H     0.91090   0.08210   0.64200   0.01267  Uiso   1.00
H37    H     0.10400   0.97810   0.64730   0.01267  Uiso   1.00
H38    H     0.05040   0.89530   0.71890   0.01267  Uiso   1.00
H39    H     0.02000   0.14060   0.75600   0.01267  Uiso   1.00
H40    H     0.07560   0.22370   0.68510   0.01267  Uiso   1.00
H41    H     0.36550   0.41410   0.47180   0.01267  Uiso   1.00
H42    H     0.41350   0.54550   0.51040   0.01267  Uiso   1.00
H43    H     0.52790   0.75150   0.40060   0.01267  Uiso   1.00
H44    H     0.47380   0.61950   0.36130   0.01267  Uiso   1.00
H45    H     0.23650   0.19110   0.40320   0.01267  Uiso   1.00
H46    H     0.05950   0.10130   0.41360   0.01267  Uiso   1.00
H47    H     0.03360   0.36640   0.39800   0.01267  Uiso   1.00
H48    H     0.21110   0.45800   0.39010   0.01267  Uiso   1.00
H49    H     0.54580   0.39230   0.32210   0.01267  Uiso   1.00
H50    H     0.59980   0.43170   0.24930   0.01267  Uiso   1.00
H51    H     0.38700   0.53630   0.24230   0.01267  Uiso   1.00
H52    H     0.33520   0.50390   0.31670   0.01267  Uiso   1.00
H53    H     0.53570   0.09040   0.48330   0.01267  Uiso   1.00
H54    H     0.49780   0.54900   0.14360   0.01267  Uiso   1.00
H55    H     0.44950   0.81200   0.66050   0.01267  Uiso   1.00
H56    H     0.56820   0.84000   0.66780   0.01267  Uiso   1.00
H57    H     0.57600   0.08660   0.09180   0.01267  Uiso   1.00
H58    H     0.39870   0.02160   0.09930   0.01267  Uiso   1.00
H59    H     0.41020   0.29750   0.11610   0.01267  Uiso   1.00
H60    H     0.58810   0.36270   0.10920   0.01267  Uiso   1.00
H61    H     0.84680   0.39680   0.02040   0.01267  Uiso   1.00
H62    H     0.94730   0.57060   0.99730   0.01267  Uiso   1.00
H63    H     0.88050   0.61980   0.11850   0.01267  Uiso   1.00
H64    H     0.77590   0.44710   0.14200   0.01267  Uiso   1.00
H65    H     0.87460   0.24870   0.14730   0.01267  Uiso   1.00
H66    H     0.88580   0.23070   0.21890   0.01267  Uiso   1.00
H67    H     0.60340   0.22400   0.25600   0.01267  Uiso   1.00
H68    H     0.59120   0.23930   0.18510   0.01267  Uiso   1.00
H69    H     0.61410   0.16270   0.97180   0.01267  Uiso   1.00
H70    H     0.44410   0.07610   0.01040   0.01267  Uiso   1.00
H71    H     0.34790   0.07150   0.90060   0.01267  Uiso   1.00
H72    H     0.51920   0.16490   0.86130   0.01267  Uiso   1.00
H73    H     0.90570   0.36030   0.90320   0.01267  Uiso   1.00
H74    H     0.98510   0.52690   0.91360   0.01267  Uiso   1.00
H75    H     0.73560   0.56840   0.89800   0.01267  Uiso   1.00
H76    H     0.65190   0.39880   0.89010   0.01267  Uiso   1.00
H77    H     0.78560   0.13210   0.82210   0.01267  Uiso   1.00
H78    H     0.81900   0.15090   0.74930   0.01267  Uiso   1.00
H79    H     0.72140   0.37070   0.74230   0.01267  Uiso   1.00
H80    H     0.67940   0.34810   0.81670   0.01267  Uiso   1.00
H81    H     0.92630   0.98100   0.98330   0.01267  Uiso   1.00
H82    H     0.80740   0.35860   0.64360   0.01267  Uiso   1.00
H83    H     0.02750   0.89000   0.16050   0.01267  Uiso   1.00
H84    H     0.99220   0.76400   0.16780   0.01267  Uiso   1.00
H85    H     0.67840   0.66780   0.40820   0.01267  Uiso   1.00
H86    H     0.62090   0.49800   0.40070   0.01267  Uiso   1.00
H87    H     0.91360   0.52630   0.38390   0.01267  Uiso   1.00
H88    H     0.97190   0.69730   0.39080   0.01267  Uiso   1.00
H89    H     0.91720   0.86720   0.47960   0.01267  Uiso   1.00
H90    H     0.06790   0.94460   0.50270   0.01267  Uiso   1.00
H91    H     0.23830   0.99900   0.38150   0.01267  Uiso   1.00
H92    H     0.08910   0.91790   0.35800   0.01267  Uiso   1.00
H93    H     0.89600   0.02190   0.35270   0.01267  Uiso   1.00
H94    H     0.94960   0.10470   0.28110   0.01267  Uiso   1.00
H95    H     0.98000   0.85940   0.24400   0.01267  Uiso   1.00
H96    H     0.92440   0.77630   0.31490   0.01267  Uiso   1.00
H97    H     0.63450   0.58590   0.52820   0.01267  Uiso   1.00
H98    H     0.58650   0.45450   0.48960   0.01267  Uiso   1.00
H99    H     0.47210   0.24850   0.59940   0.01267  Uiso   1.00
H100   H     0.52620   0.38050   0.63870   0.01267  Uiso   1.00
H101   H     0.76350   0.80890   0.59680   0.01267  Uiso   1.00
H102   H     0.94050   0.89870   0.58640   0.01267  Uiso   1.00
H103   H     0.96640   0.63360   0.60200   0.01267  Uiso   1.00
H104   H     0.78890   0.54200   0.60990   0.01267  Uiso   1.00
H105   H     0.45420   0.60770   0.67790   0.01267  Uiso   1.00
H106   H     0.40020   0.56830   0.75070   0.01267  Uiso   1.00
H107   H     0.61300   0.46370   0.75770   0.01267  Uiso   1.00
H108   H     0.66480   0.49610   0.68330   0.01267  Uiso   1.00
H109   H     0.46430   0.90960   0.51670   0.01267  Uiso   1.00
H110   H     0.50220   0.45100   0.85640   0.01267  Uiso   1.00
H111   H     0.55050   0.18800   0.33950   0.01267  Uiso   1.00
H112   H     0.43180   0.16000   0.33220   0.01267  Uiso   1.00
C1     C     0.40062   0.77061   0.89917   0.01267  Uiso   1.00
C2     C     0.45783   0.87080   0.90277   0.01267  Uiso   1.00
C3     C     0.56307   0.90950   0.89863   0.01267  Uiso   1.00
C4     C     0.61329   0.84640   0.89131   0.01267  Uiso   1.00
C5     C     0.72896   0.89340   0.88424   0.01267  Uiso   1.00
C6     C     0.55614   0.74550   0.88856   0.01267  Uiso   1.00
C7     C     0.45036   0.70650   0.89254   0.01267  Uiso   1.00
C8     C     0.19649   0.59669   0.91642   0.01267  Uiso   1.00
C9     C     0.14607   0.55840   0.95953   0.01267  Uiso   1.00
C10    C     0.08549   0.45494   0.97317   0.01267  Uiso   1.00
C11    C     0.07196   0.38804   0.94420   0.01267  Uiso   1.00
C12    C     0.99252   0.27698   0.95830   0.01267  Uiso   1.00
C13    C     0.12572   0.42570   0.90118   0.01267  Uiso   1.00
C14    C     0.18753   0.52830   0.88717   0.01267  Uiso   1.00
C15    C     0.26726   0.75258   0.84156   0.01267  Uiso   1.00
C16    C     0.18098   0.75640   0.83062   0.01267  Uiso   1.00
C17    C     0.17415   0.76780   0.78785   0.01267  Uiso   1.00
C18    C     0.25527   0.77680   0.75553   0.01267  Uiso   1.00
C19    C     0.24911   0.78800   0.70949   0.01267  Uiso   1.00
C20    C     0.34163   0.77210   0.76607   0.01267  Uiso   1.00
C21    C     0.34838   0.76160   0.80842   0.01267  Uiso   1.00
C22    C     0.41503   0.82804   0.08773   0.01267  Uiso   1.00
C23    C     0.43959   0.85510   0.04291   0.01267  Uiso   1.00
C24    C     0.54078   0.90710   0.01992   0.01267  Uiso   1.00
C25    C     0.62134   0.93551   0.04075   0.01267  Uiso   1.00
C26    C     0.73244   0.99890   0.01546   0.01267  Uiso   1.00
C27    C     0.59793   0.90920   0.08487   0.01267  Uiso   1.00
C28    C     0.49540   0.85430   0.10850   0.01267  Uiso   1.00
C29    C     0.22821   0.63760   0.10519   0.01267  Uiso   1.00
C30    C     0.12927   0.59770   0.09783   0.01267  Uiso   1.00
C31    C     0.08150   0.49830   0.09200   0.01267  Uiso   1.00
C32    C     0.13116   0.43472   0.09432   0.01267  Uiso   1.00
C33    C     0.07601   0.32540   0.08979   0.01267  Uiso   1.00
C34    C     0.22997   0.47410   0.10093   0.01267  Uiso   1.00
C35    C     0.28001   0.57500   0.10599   0.01267  Uiso   1.00
C36    C     0.26657   0.75800   0.17203   0.01267  Uiso   1.00
C37    C     0.22710   0.81850   0.19380   0.01267  Uiso   1.00
C38    C     0.20710   0.80700   0.23690   0.01267  Uiso   1.00
C39    C     0.22357   0.73570   0.26153   0.01267  Uiso   1.00
C40    C     0.19540   0.72200   0.31020   0.01267  Uiso   1.00
C41    C     0.26563   0.67770   0.24127   0.01267  Uiso   1.00
C42    C     0.28887   0.69010   0.19703   0.01267  Uiso   1.00
C43    C     0.05743   0.04980   0.03997   0.01267  Uiso   1.00
C44    C     0.16978   0.29979   0.60083   0.01267  Uiso   1.00
C45    C     0.27357   0.36060   0.59723   0.01267  Uiso   1.00
C46    C     0.30813   0.46170   0.60137   0.01267  Uiso   1.00
C47    C     0.23771   0.50460   0.60869   0.01267  Uiso   1.00
C48    C     0.27764   0.61320   0.61576   0.01267  Uiso   1.00
C49    C     0.13406   0.44470   0.61144   0.01267  Uiso   1.00
C50    C     0.09904   0.34290   0.60746   0.01267  Uiso   1.00
C51    C     0.01311   0.11291   0.58358   0.01267  Uiso   1.00
C52    C     0.01793   0.10560   0.54047   0.01267  Uiso   1.00
C53    C     0.92811   0.05866   0.52683   0.01267  Uiso   1.00
C54    C     0.83224   0.01616   0.55580   0.01267  Uiso   1.00
C55    C     0.73528   0.95082   0.54170   0.01267  Uiso   1.00
C56    C     0.82688   0.02690   0.59882   0.01267  Uiso   1.00
C57    C     0.91547   0.07470   0.61283   0.01267  Uiso   1.00
C58    C     0.09414   0.10882   0.65844   0.01267  Uiso   1.00
C59    C     0.08702   0.01160   0.66938   0.01267  Uiso   1.00
C60    C     0.05565   0.96200   0.71215   0.01267  Uiso   1.00
C61    C     0.03233   0.01080   0.74447   0.01267  Uiso   1.00
C62    C     0.99749   0.95860   0.79051   0.01267  Uiso   1.00
C63    C     0.03817   0.10770   0.73393   0.01267  Uiso   1.00
C64    C     0.07002   0.15680   0.69158   0.01267  Uiso   1.00
C65    C     0.41577   0.50276   0.41227   0.01267  Uiso   1.00
C66    C     0.39801   0.48250   0.45709   0.01267  Uiso   1.00
C67    C     0.42702   0.56070   0.48008   0.01267  Uiso   1.00
C68    C     0.47626   0.66209   0.45925   0.01267  Uiso   1.00
C69    C     0.51436   0.74790   0.48454   0.01267  Uiso   1.00
C70    C     0.49407   0.68280   0.41513   0.01267  Uiso   1.00
C71    C     0.46280   0.60390   0.39150   0.01267  Uiso   1.00
C72    C     0.24279   0.33340   0.39481   0.01267  Uiso   1.00
C73    C     0.19553   0.22710   0.40217   0.01267  Uiso   1.00
C74    C     0.09030   0.17350   0.40800   0.01267  Uiso   1.00
C75    C     0.02904   0.22548   0.40568   0.01267  Uiso   1.00
C76    C     0.91519   0.16580   0.41021   0.01267  Uiso   1.00
C77    C     0.07503   0.33090   0.39907   0.01267  Uiso   1.00
C78    C     0.18099   0.38600   0.39401   0.01267  Uiso   1.00
C79    C     0.43003   0.43860   0.32797   0.01267  Uiso   1.00
C80    C     0.51230   0.42090   0.30620   0.01267  Uiso   1.00
C81    C     0.54390   0.44400   0.26310   0.01267  Uiso   1.00
C82    C     0.49723   0.48510   0.23847   0.01267  Uiso   1.00
C83    C     0.53220   0.50560   0.18980   0.01267  Uiso   1.00
C84    C     0.41897   0.50690   0.25873   0.01267  Uiso   1.00
C85    C     0.38713   0.48590   0.30297   0.01267  Uiso   1.00
C86    C     0.58977   0.09740   0.46003   0.01267  Uiso   1.00
C87    C     0.59938   0.22939   0.10083   0.01267  Uiso   1.00
C88    C     0.54217   0.12920   0.09723   0.01267  Uiso   1.00
C89    C     0.43693   0.09050   0.10137   0.01267  Uiso   1.00
C90    C     0.38671   0.15360   0.10869   0.01267  Uiso   1.00
C91    C     0.27104   0.10660   0.11576   0.01267  Uiso   1.00
C92    C     0.44386   0.25450   0.11144   0.01267  Uiso   1.00
C93    C     0.54964   0.29350   0.10746   0.01267  Uiso   1.00
C94    C     0.80351   0.40331   0.08358   0.01267  Uiso   1.00
C95    C     0.85393   0.44160   0.04047   0.01267  Uiso   1.00
C96    C     0.91451   0.54506   0.02683   0.01267  Uiso   1.00
C97    C     0.92804   0.61196   0.05580   0.01267  Uiso   1.00
C98    C     0.00748   0.72302   0.04170   0.01267  Uiso   1.00
C99    C     0.87428   0.57430   0.09882   0.01267  Uiso   1.00
C100   C     0.81247   0.47170   0.11283   0.01267  Uiso   1.00
C101   C     0.73274   0.24742   0.15844   0.01267  Uiso   1.00
C102   C     0.81902   0.24360   0.16938   0.01267  Uiso   1.00
C103   C     0.82585   0.23220   0.21215   0.01267  Uiso   1.00
C104   C     0.74473   0.22320   0.24447   0.01267  Uiso   1.00
C105   C     0.75089   0.21200   0.29051   0.01267  Uiso   1.00
C106   C     0.65837   0.22790   0.23393   0.01267  Uiso   1.00
C107   C     0.65162   0.23840   0.19158   0.01267  Uiso   1.00
C108   C     0.58497   0.17196   0.91227   0.01267  Uiso   1.00
C109   C     0.56041   0.14490   0.95709   0.01267  Uiso   1.00
C110   C     0.45922   0.09290   0.98008   0.01267  Uiso   1.00
C111   C     0.37866   0.06449   0.95925   0.01267  Uiso   1.00
C112   C     0.26756   0.00110   0.98454   0.01267  Uiso   1.00
C113   C     0.40207   0.09080   0.91513   0.01267  Uiso   1.00
C114   C     0.50460   0.14570   0.89150   0.01267  Uiso   1.00
C115   C     0.77179   0.36240   0.89481   0.01267  Uiso   1.00
C116   C     0.87073   0.40230   0.90217   0.01267  Uiso   1.00
C117   C     0.91850   0.50170   0.90800   0.01267  Uiso   1.00
C118   C     0.86884   0.56528   0.90568   0.01267  Uiso   1.00
C119   C     0.92399   0.67460   0.91021   0.01267  Uiso   1.00
C120   C     0.77003   0.52590   0.89907   0.01267  Uiso   1.00
C121   C     0.71999   0.42500   0.89401   0.01267  Uiso   1.00
C122   C     0.73343   0.24200   0.82797   0.01267  Uiso   1.00
C123   C     0.77290   0.18150   0.80620   0.01267  Uiso   1.00
C124   C     0.79290   0.19300   0.76310   0.01267  Uiso   1.00
C125   C     0.77643   0.26430   0.73847   0.01267  Uiso   1.00
C126   C     0.80460   0.27800   0.68980   0.01267  Uiso   1.00
C127   C     0.73437   0.32230   0.75873   0.01267  Uiso   1.00
C128   C     0.71113   0.30990   0.80297   0.01267  Uiso   1.00
C129   C     0.94257   0.95020   0.96003   0.01267  Uiso   1.00
C130   C     0.83022   0.70021   0.39917   0.01267  Uiso   1.00
C131   C     0.72643   0.63940   0.40277   0.01267  Uiso   1.00
C132   C     0.69187   0.53830   0.39863   0.01267  Uiso   1.00
C133   C     0.76229   0.49540   0.39131   0.01267  Uiso   1.00
C134   C     0.72236   0.38680   0.38424   0.01267  Uiso   1.00
C135   C     0.86594   0.55530   0.38856   0.01267  Uiso   1.00
C136   C     0.90096   0.65710   0.39254   0.01267  Uiso   1.00
C137   C     0.98689   0.88709   0.41642   0.01267  Uiso   1.00
C138   C     0.98207   0.89440   0.45953   0.01267  Uiso   1.00
C139   C     0.07189   0.94134   0.47317   0.01267  Uiso   1.00
C140   C     0.16776   0.98384   0.44420   0.01267  Uiso   1.00
C141   C     0.26472   0.04918   0.45830   0.01267  Uiso   1.00
C142   C     0.17312   0.97310   0.40118   0.01267  Uiso   1.00
C143   C     0.08453   0.92530   0.38717   0.01267  Uiso   1.00
C144   C     0.90586   0.89118   0.34156   0.01267  Uiso   1.00
C145   C     0.91298   0.98840   0.33062   0.01267  Uiso   1.00
C146   C     0.94435   0.03800   0.28785   0.01267  Uiso   1.00
C147   C     0.96767   0.98920   0.25553   0.01267  Uiso   1.00
C148   C     0.00251   0.04140   0.20949   0.01267  Uiso   1.00
C149   C     0.96183   0.89230   0.26607   0.01267  Uiso   1.00
C150   C     0.92998   0.84320   0.30842   0.01267  Uiso   1.00
C151   C     0.58423   0.49724   0.58773   0.01267  Uiso   1.00
C152   C     0.60199   0.51750   0.54291   0.01267  Uiso   1.00
C153   C     0.57298   0.43930   0.51992   0.01267  Uiso   1.00
C154   C     0.52374   0.33791   0.54075   0.01267  Uiso   1.00
C155   C     0.48564   0.25210   0.51546   0.01267  Uiso   1.00
C156   C     0.50593   0.31720   0.58487   0.01267  Uiso   1.00
C157   C     0.53720   0.39610   0.60850   0.01267  Uiso   1.00
C158   C     0.75721   0.66660   0.60519   0.01267  Uiso   1.00
C159   C     0.80447   0.77290   0.59783   0.01267  Uiso   1.00
C160   C     0.90970   0.82650   0.59200   0.01267  Uiso   1.00
C161   C     0.97096   0.77452   0.59432   0.01267  Uiso   1.00
C162   C     0.08481   0.83420   0.58979   0.01267  Uiso   1.00
C163   C     0.92497   0.66910   0.60093   0.01267  Uiso   1.00
C164   C     0.81901   0.61400   0.60599   0.01267  Uiso   1.00
C165   C     0.56997   0.56140   0.67203   0.01267  Uiso   1.00
C166   C     0.48770   0.57910   0.69380   0.01267  Uiso   1.00
C167   C     0.45610   0.55600   0.73690   0.01267  Uiso   1.00
C168   C     0.50277   0.51490   0.76153   0.01267  Uiso   1.00
C169   C     0.46780   0.49440   0.81020   0.01267  Uiso   1.00
C170   C     0.58103   0.49310   0.74127   0.01267  Uiso   1.00
C171   C     0.61287   0.51410   0.69703   0.01267  Uiso   1.00
C172   C     0.41023   0.90260   0.53997   0.01267  Uiso   1.00
Cl1    Cl    0.86570   0.04975   0.12825   0.01267  Uiso   1.00
Cl2    Cl    0.67800   0.99395   0.37175   0.01267  Uiso   1.00
Cl3    Cl    0.13430   0.95025   0.87175   0.01267  Uiso   1.00
Cl4    Cl    0.32200   0.00605   0.62825   0.01267  Uiso   1.00
O1     O     0.77616   0.98801   0.88063   0.01267  Uiso   1.00
O2     O     0.77203   0.83267   0.88130   0.01267  Uiso   1.00
O3     O     0.93253   0.25382   0.99465   0.01267  Uiso   1.00
O4     O     0.98956   0.21722   0.93182   0.01267  Uiso   1.00
O5     O     0.16806   0.78177   0.69937   0.01267  Uiso   1.00
O6     O     0.32986   0.80511   0.68023   0.01267  Uiso   1.00
O7     O     0.22396   0.79392   0.92272   0.01267  Uiso   1.00
O8     O     0.74727   0.01510   0.97523   0.01267  Uiso   1.00
O9     O     0.80131   0.02474   0.03655   0.01267  Uiso   1.00
O10    O     0.99884   0.29964   0.07412   0.01267  Uiso   1.00
O11    O     0.11206   0.26660   0.10374   0.01267  Uiso   1.00
O12    O     0.16436   0.77420   0.32924   0.01267  Uiso   1.00
O13    O     0.20918   0.64550   0.32972   0.01267  Uiso   1.00
O14    O     0.22128   0.81979   0.09873   0.01267  Uiso   1.00
O15    O     0.03172   0.11936   0.03172   0.01267  Uiso   1.00
O16    O     0.06432   0.01550   0.07678   0.01267  Uiso   1.00
O17    O     0.97598   0.16519   0.85303   0.01267  Uiso   1.00
O18    O     0.36864   0.65679   0.61937   0.01267  Uiso   1.00
O19    O     0.21397   0.65333   0.61870   0.01267  Uiso   1.00
O20    O     0.74847   0.92718   0.50535   0.01267  Uiso   1.00
O21    O     0.64904   0.92138   0.56818   0.01267  Uiso   1.00
O22    O     0.98114   0.86743   0.80063   0.01267  Uiso   1.00
O23    O     0.98534   0.01009   0.81977   0.01267  Uiso   1.00
O24    O     0.21664   0.14668   0.57728   0.01267  Uiso   1.00
O25    O     0.49033   0.72250   0.52477   0.01267  Uiso   1.00
O26    O     0.56129   0.83786   0.46345   0.01267  Uiso   1.00
O27    O     0.87376   0.07296   0.42588   0.01267  Uiso   1.00
O28    O     0.87034   0.21580   0.39626   0.01267  Uiso   1.00
O29    O     0.60344   0.49360   0.17076   0.01267  Uiso   1.00
O30    O     0.47522   0.53890   0.17028   0.01267  Uiso   1.00
O31    O     0.41852   0.32001   0.40127   0.01267  Uiso   1.00
O32    O     0.65108   0.06344   0.46828   0.01267  Uiso   1.00
O33    O     0.59228   0.14110   0.42322   0.01267  Uiso   1.00
O34    O     0.51822   0.82901   0.64697   0.01267  Uiso   1.00
O35    O     0.22384   0.01199   0.11937   0.01267  Uiso   1.00
O36    O     0.22797   0.16733   0.11870   0.01267  Uiso   1.00
O37    O     0.06747   0.74618   0.00535   0.01267  Uiso   1.00
O38    O     0.01044   0.78278   0.06818   0.01267  Uiso   1.00
O39    O     0.83194   0.21823   0.30063   0.01267  Uiso   1.00
O40    O     0.67014   0.19489   0.31977   0.01267  Uiso   1.00
O41    O     0.77604   0.20608   0.07728   0.01267  Uiso   1.00
O42    O     0.25273   0.98490   0.02477   0.01267  Uiso   1.00
O43    O     0.19869   0.97526   0.96345   0.01267  Uiso   1.00
O44    O     0.00116   0.70036   0.92588   0.01267  Uiso   1.00
O45    O     0.88794   0.73340   0.89626   0.01267  Uiso   1.00
O46    O     0.83564   0.22580   0.67076   0.01267  Uiso   1.00
O47    O     0.79082   0.35450   0.67028   0.01267  Uiso   1.00
O48    O     0.77872   0.18021   0.90127   0.01267  Uiso   1.00
O49    O     0.96828   0.88064   0.96828   0.01267  Uiso   1.00
O50    O     0.93568   0.98450   0.92322   0.01267  Uiso   1.00
O51    O     0.02402   0.83481   0.14697   0.01267  Uiso   1.00
O52    O     0.63136   0.34321   0.38063   0.01267  Uiso   1.00
O53    O     0.78603   0.34667   0.38130   0.01267  Uiso   1.00
O54    O     0.25153   0.07282   0.49465   0.01267  Uiso   1.00
O55    O     0.35096   0.07862   0.43182   0.01267  Uiso   1.00
O56    O     0.01886   0.13257   0.19937   0.01267  Uiso   1.00
O57    O     0.01466   0.98991   0.18023   0.01267  Uiso   1.00
O58    O     0.78336   0.85332   0.42272   0.01267  Uiso   1.00
O59    O     0.50967   0.27750   0.47523   0.01267  Uiso   1.00
O60    O     0.43871   0.16214   0.53655   0.01267  Uiso   1.00
O61    O     0.12624   0.92704   0.57412   0.01267  Uiso   1.00
O62    O     0.12966   0.78420   0.60374   0.01267  Uiso   1.00
O63    O     0.39656   0.50640   0.82924   0.01267  Uiso   1.00
O64    O     0.52478   0.46110   0.82972   0.01267  Uiso   1.00
O65    O     0.58148   0.67999   0.59873   0.01267  Uiso   1.00
O66    O     0.34892   0.93656   0.53172   0.01267  Uiso   1.00
O67    O     0.40772   0.85890   0.57678   0.01267  Uiso   1.00
O68    O     0.48178   0.17099   0.35303   0.01267  Uiso   1.00
H113   H     0.15030   0.15990   0.94800   0.01267  Uiso   1.00
H114   H     0.21550   0.27400   0.92250   0.01267  Uiso   1.00
H115   H     0.26410   0.19390   0.91940   0.01267  Uiso   1.00
H116   H     0.19190   0.20480   0.82070   0.01267  Uiso   1.00
H117   H     0.29130   0.22230   0.83880   0.01267  Uiso   1.00
H118   H     0.24380   0.30320   0.84140   0.01267  Uiso   1.00
H119   H     0.09930   0.18100   0.88890   0.01267  Uiso   1.00
H120   H     0.14320   0.10580   0.88640   0.01267  Uiso   1.00
C173   C     0.20060   0.20270   0.92170   0.01267  Uiso   1.00
C174   C     0.22750   0.23090   0.84300   0.01267  Uiso   1.00
N1     N     0.15970   0.17370   0.88580   0.01267  Uiso   1.00
H121   H     0.60790   0.09830   0.55200   0.01267  Uiso   1.00
H122   H     0.69650   0.13800   0.57750   0.01267  Uiso   1.00
H123   H     0.61330   0.18350   0.58060   0.01267  Uiso   1.00
H124   H     0.52550   0.01260   0.67930   0.01267  Uiso   1.00
H125   H     0.56110   0.13010   0.66120   0.01267  Uiso   1.00
H126   H     0.64460   0.08520   0.65860   0.01267  Uiso   1.00
H127   H     0.56990   0.98820   0.61110   0.01267  Uiso   1.00
H128   H     0.49220   0.02960   0.61360   0.01267  Uiso   1.00
C175   C     0.62440   0.12230   0.57830   0.01267  Uiso   1.00
C176   C     0.57390   0.07050   0.65700   0.01267  Uiso   1.00
N2     N     0.55950   0.04550   0.61420   0.01267  Uiso   1.00
H129   H     0.84970   0.84010   0.05200   0.01267  Uiso   1.00
H130   H     0.78450   0.72600   0.07750   0.01267  Uiso   1.00
H131   H     0.73590   0.80610   0.08060   0.01267  Uiso   1.00
H132   H     0.80810   0.79520   0.17930   0.01267  Uiso   1.00
H133   H     0.70870   0.77770   0.16120   0.01267  Uiso   1.00
H134   H     0.75620   0.69680   0.15860   0.01267  Uiso   1.00
H135   H     0.90070   0.81900   0.11110   0.01267  Uiso   1.00
H136   H     0.85680   0.89420   0.11360   0.01267  Uiso   1.00
C177   C     0.79940   0.79730   0.07830   0.01267  Uiso   1.00
C178   C     0.77250   0.76910   0.15700   0.01267  Uiso   1.00
N3     N     0.84030   0.82630   0.11420   0.01267  Uiso   1.00
H137   H     0.39210   0.90170   0.44800   0.01267  Uiso   1.00
H138   H     0.30350   0.86200   0.42250   0.01267  Uiso   1.00
H139   H     0.38670   0.81650   0.41940   0.01267  Uiso   1.00
H140   H     0.47450   0.98740   0.32070   0.01267  Uiso   1.00
H141   H     0.43890   0.86990   0.33880   0.01267  Uiso   1.00
H142   H     0.35540   0.91480   0.34140   0.01267  Uiso   1.00
H143   H     0.43010   0.01180   0.38890   0.01267  Uiso   1.00
H144   H     0.50780   0.97040   0.38640   0.01267  Uiso   1.00
C179   C     0.37560   0.87770   0.42170   0.01267  Uiso   1.00
C180   C     0.42610   0.92950   0.34300   0.01267  Uiso   1.00
N4     N     0.44050   0.95450   0.38580   0.01267  Uiso   1.00
