data_BEPYIG_clean
_audit_creation_date              2014-07-02
_audit_creation_method            'Materials Studio'
_symmetry_space_group_name_H-M    'P1'
_symmetry_Int_Tables_number       1
_symmetry_cell_setting            triclinic
loop_
_symmetry_equiv_pos_as_xyz
  x,y,z
_cell_length_a                    5.7377
_cell_length_b                    15.5918
_cell_length_c                    15.5918
_cell_angle_alpha                 110.3450
_cell_angle_beta                  94.6472
_cell_angle_gamma                 94.6472
loop_
_atom_site_label
_atom_site_type_symbol
_atom_site_fract_x
_atom_site_fract_y
_atom_site_fract_z
_atom_site_U_iso_or_equiv
_atom_site_adp_type
_atom_site_occupancy
Cu1    Cu    0.95006   0.56174   0.60533   0.01267  Uiso   1.00
Cu2    Cu    0.54994   0.39467   0.43826   0.01267  Uiso   1.00
Cu3    Cu    0.04994   0.43826   0.39467   0.01267  Uiso   1.00
Cu4    Cu    0.45006   0.60533   0.56174   0.01267  Uiso   1.00
H1     H     0.44120   0.24600   0.60700   0.01267  Uiso   1.00
H2     H     0.10120   0.14580   0.63520   0.01267  Uiso   1.00
H3     H     0.28530   0.10170   0.56430   0.01267  Uiso   1.00
H4     H     0.81990   0.04290   0.67110   0.01267  Uiso   1.00
H5     H     0.67350   0.89480   0.66120   0.01267  Uiso   1.00
H6     H     0.24990   0.79540   0.54520   0.01267  Uiso   1.00
H7     H     0.38180   0.94220   0.54680   0.01267  Uiso   1.00
H8     H     0.05880   0.39300   0.75400   0.01267  Uiso   1.00
H9     H     0.39880   0.36480   0.85420   0.01267  Uiso   1.00
H10    H     0.21470   0.43570   0.89830   0.01267  Uiso   1.00
H11    H     0.68010   0.32890   0.95710   0.01267  Uiso   1.00
H12    H     0.82650   0.33880   0.10520   0.01267  Uiso   1.00
H13    H     0.25010   0.45480   0.20460   0.01267  Uiso   1.00
H14    H     0.11820   0.45320   0.05780   0.01267  Uiso   1.00
H15    H     0.55880   0.75400   0.39300   0.01267  Uiso   1.00
H16    H     0.89880   0.85420   0.36480   0.01267  Uiso   1.00
H17    H     0.71470   0.89830   0.43570   0.01267  Uiso   1.00
H18    H     0.18010   0.95710   0.32890   0.01267  Uiso   1.00
H19    H     0.32650   0.10520   0.33880   0.01267  Uiso   1.00
H20    H     0.75010   0.20460   0.45480   0.01267  Uiso   1.00
H21    H     0.61820   0.05780   0.45320   0.01267  Uiso   1.00
H22    H     0.94120   0.60700   0.24600   0.01267  Uiso   1.00
H23    H     0.60120   0.63520   0.14580   0.01267  Uiso   1.00
H24    H     0.78530   0.56430   0.10170   0.01267  Uiso   1.00
H25    H     0.31990   0.67110   0.04290   0.01267  Uiso   1.00
H26    H     0.17350   0.66120   0.89480   0.01267  Uiso   1.00
H27    H     0.74990   0.54520   0.79540   0.01267  Uiso   1.00
H28    H     0.88180   0.54680   0.94220   0.01267  Uiso   1.00
H29    H     0.75000   0.18190   0.81810   0.01267  Uiso   1.00
H30    H     0.25000   0.81810   0.18190   0.01267  Uiso   1.00
C1     C     0.56590   0.25665   0.65477   0.01267  Uiso   1.00
C2     C     0.57070   0.20212   0.70906   0.01267  Uiso   1.00
C3     C     0.22150   0.10228   0.62156   0.01267  Uiso   1.00
C4     C     0.11700   0.00732   0.61174   0.01267  Uiso   1.00
C5     C     0.90640   0.99260   0.64488   0.01267  Uiso   1.00
C6     C     0.82040   0.90465   0.64001   0.01267  Uiso   1.00
C7     C     0.95050   0.83128   0.60392   0.01267  Uiso   1.00
C8     C     0.16100   0.84526   0.56994   0.01267  Uiso   1.00
C9     C     0.24120   0.93307   0.57233   0.01267  Uiso   1.00
C10    C     0.86170   0.73733   0.60113   0.01267  Uiso   1.00
C11    C     0.93410   0.34523   0.74335   0.01267  Uiso   1.00
C12    C     0.92930   0.29094   0.79788   0.01267  Uiso   1.00
C13    C     0.27850   0.37844   0.89772   0.01267  Uiso   1.00
C14    C     0.38300   0.38826   0.99268   0.01267  Uiso   1.00
C15    C     0.59360   0.35512   0.00740   0.01267  Uiso   1.00
C16    C     0.67960   0.35999   0.09535   0.01267  Uiso   1.00
C17    C     0.54950   0.39608   0.16872   0.01267  Uiso   1.00
C18    C     0.33900   0.43006   0.15474   0.01267  Uiso   1.00
C19    C     0.25880   0.42767   0.06693   0.01267  Uiso   1.00
C20    C     0.63830   0.39887   0.26267   0.01267  Uiso   1.00
C21    C     0.43410   0.74335   0.34523   0.01267  Uiso   1.00
C22    C     0.42930   0.79788   0.29094   0.01267  Uiso   1.00
C23    C     0.77850   0.89772   0.37844   0.01267  Uiso   1.00
C24    C     0.88300   0.99268   0.38826   0.01267  Uiso   1.00
C25    C     0.09360   0.00740   0.35512   0.01267  Uiso   1.00
C26    C     0.17960   0.09535   0.35999   0.01267  Uiso   1.00
C27    C     0.04950   0.16872   0.39608   0.01267  Uiso   1.00
C28    C     0.83900   0.15474   0.43006   0.01267  Uiso   1.00
C29    C     0.75880   0.06693   0.42767   0.01267  Uiso   1.00
C30    C     0.13830   0.26267   0.39887   0.01267  Uiso   1.00
C31    C     0.06590   0.65477   0.25665   0.01267  Uiso   1.00
C32    C     0.07070   0.70906   0.20212   0.01267  Uiso   1.00
C33    C     0.72150   0.62156   0.10228   0.01267  Uiso   1.00
C34    C     0.61700   0.61174   0.00732   0.01267  Uiso   1.00
C35    C     0.40640   0.64488   0.99260   0.01267  Uiso   1.00
C36    C     0.32040   0.64001   0.90465   0.01267  Uiso   1.00
C37    C     0.45050   0.60392   0.83128   0.01267  Uiso   1.00
C38    C     0.66100   0.56994   0.84526   0.01267  Uiso   1.00
C39    C     0.74120   0.57233   0.93307   0.01267  Uiso   1.00
C40    C     0.36170   0.60113   0.73733   0.01267  Uiso   1.00
C41    C     0.75000   0.38586   0.61414   0.01267  Uiso   1.00
C42    C     0.75000   0.32755   0.67245   0.01267  Uiso   1.00
C43    C     0.75000   0.21903   0.78097   0.01267  Uiso   1.00
C44    C     0.25000   0.61414   0.38586   0.01267  Uiso   1.00
C45    C     0.25000   0.67245   0.32755   0.01267  Uiso   1.00
C46    C     0.25000   0.78097   0.21903   0.01267  Uiso   1.00
O1     O     0.91920   0.44899   0.63259   0.01267  Uiso   1.00
O2     O     0.40740   0.12848   0.69716   0.01267  Uiso   1.00
O3     O     0.00560   0.67748   0.58488   0.01267  Uiso   1.00
O4     O     0.64830   0.72408   0.61470   0.01267  Uiso   1.00
O5     O     0.58080   0.36741   0.55101   0.01267  Uiso   1.00
O6     O     0.09260   0.30284   0.87152   0.01267  Uiso   1.00
O7     O     0.49440   0.41512   0.32252   0.01267  Uiso   1.00
O8     O     0.85170   0.38530   0.27592   0.01267  Uiso   1.00
O9     O     0.08080   0.55101   0.36741   0.01267  Uiso   1.00
O10    O     0.59260   0.87152   0.30284   0.01267  Uiso   1.00
O11    O     0.99440   0.32252   0.41512   0.01267  Uiso   1.00
O12    O     0.35170   0.27592   0.38530   0.01267  Uiso   1.00
O13    O     0.41920   0.63259   0.44899   0.01267  Uiso   1.00
O14    O     0.90740   0.69716   0.12848   0.01267  Uiso   1.00
O15    O     0.50560   0.58488   0.67748   0.01267  Uiso   1.00
O16    O     0.14830   0.61470   0.72408   0.01267  Uiso   1.00
O17    O     0.75000   0.50940   0.49060   0.01267  Uiso   1.00
O18    O     0.25000   0.49060   0.50940   0.01267  Uiso   1.00
