data_BEQFEK_clean
_audit_creation_date              2014-07-02
_audit_creation_method            'Materials Studio'
_symmetry_space_group_name_H-M    'P1'
_symmetry_Int_Tables_number       1
_symmetry_cell_setting            triclinic
loop_
_symmetry_equiv_pos_as_xyz
  x,y,z
_cell_length_a                    8.5387
_cell_length_b                    31.3615
_cell_length_c                    31.3615
_cell_angle_alpha                 88.9381
_cell_angle_beta                  82.1758
_cell_angle_gamma                 82.1760
loop_
_atom_site_label
_atom_site_type_symbol
_atom_site_fract_x
_atom_site_fract_y
_atom_site_fract_z
_atom_site_U_iso_or_equiv
_atom_site_adp_type
_atom_site_occupancy
Co1    Co    0.71166   0.64757   0.54323   0.01267  Uiso   1.00
Co2    Co    0.36444   0.70374   0.55594   0.01267  Uiso   1.00
Co3    Co    0.40246   0.85243   0.95677   0.01267  Uiso   1.00
Co4    Co    0.12412   0.79626   0.94406   0.01267  Uiso   1.00
Co5    Co    0.25489   0.45677   0.14757   0.01267  Uiso   1.00
Co6    Co    0.92038   0.44406   0.20374   0.01267  Uiso   1.00
Co7    Co    0.35922   0.04324   0.35243   0.01267  Uiso   1.00
Co8    Co    0.06818   0.05594   0.29626   0.01267  Uiso   1.00
Co9    Co    0.28834   0.35243   0.45677   0.01267  Uiso   1.00
Co10   Co    0.63556   0.29626   0.44406   0.01267  Uiso   1.00
Co11   Co    0.59754   0.14757   0.04323   0.01267  Uiso   1.00
Co12   Co    0.87588   0.20374   0.05594   0.01267  Uiso   1.00
Co13   Co    0.74510   0.54324   0.85243   0.01267  Uiso   1.00
Co14   Co    0.07962   0.55594   0.79626   0.01267  Uiso   1.00
Co15   Co    0.64077   0.95677   0.64757   0.01267  Uiso   1.00
Co16   Co    0.93182   0.94406   0.70374   0.01267  Uiso   1.00
H1     H     0.18670   0.64830   0.44990   0.01267  Uiso   1.00
H2     H     0.12980   0.61080   0.39280   0.01267  Uiso   1.00
H3     H     0.56890   0.54390   0.38170   0.01267  Uiso   1.00
H4     H     0.62500   0.58240   0.43900   0.01267  Uiso   1.00
H5     H     0.07270   0.54630   0.36690   0.01267  Uiso   1.00
H6     H     0.01080   0.50960   0.30980   0.01267  Uiso   1.00
H7     H     0.46310   0.50320   0.25320   0.01267  Uiso   1.00
H8     H     0.52480   0.54070   0.31030   0.01267  Uiso   1.00
H9     H     0.05260   0.54170   0.49870   0.01267  Uiso   1.00
H10    H     0.27220   0.49310   0.47450   0.01267  Uiso   1.00
H11    H     0.52810   0.54560   0.55200   0.01267  Uiso   1.00
H12    H     0.30690   0.59380   0.57720   0.01267  Uiso   1.00
H13    H     0.79620   0.58320   0.61020   0.01267  Uiso   1.00
H14    H     0.78140   0.58910   0.66010   0.01267  Uiso   1.00
H15    H     0.68430   0.55690   0.64090   0.01267  Uiso   1.00
H16    H     0.17750   0.71300   0.64660   0.01267  Uiso   1.00
H17    H     0.13310   0.67340   0.67460   0.01267  Uiso   1.00
H18    H     0.23130   0.70620   0.69240   0.01267  Uiso   1.00
H19    H     0.08870   0.56190   0.70270   0.01267  Uiso   1.00
H20    H     0.11320   0.60450   0.67710   0.01267  Uiso   1.00
H21    H     0.22370   0.56140   0.66340   0.01267  Uiso   1.00
H22    H     0.64040   0.62210   0.78470   0.01267  Uiso   1.00
H23    H     0.71610   0.61820   0.73620   0.01267  Uiso   1.00
H24    H     0.60270   0.65990   0.75270   0.01267  Uiso   1.00
H25    H     0.41680   0.58200   0.80000   0.01267  Uiso   1.00
H26    H     0.78490   0.85170   0.05010   0.01267  Uiso   1.00
H27    H     0.63340   0.88920   0.10720   0.01267  Uiso   1.00
H28    H     0.99450   0.95610   0.11830   0.01267  Uiso   1.00
H29    H     0.14640   0.91760   0.06100   0.01267  Uiso   1.00
H30    H     0.48590   0.95370   0.13310   0.01267  Uiso   1.00
H31    H     0.33020   0.99040   0.19020   0.01267  Uiso   1.00
H32    H     0.71950   0.99680   0.24680   0.01267  Uiso   1.00
H33    H     0.87580   0.95930   0.18970   0.01267  Uiso   1.00
H34    H     0.59300   0.95830   0.00130   0.01267  Uiso   1.00
H35    H     0.73980   0.00690   0.02550   0.01267  Uiso   1.00
H36    H     0.12570   0.95440   0.94800   0.01267  Uiso   1.00
H37    H     0.97790   0.90620   0.92280   0.01267  Uiso   1.00
H38    H     0.48960   0.91680   0.88980   0.01267  Uiso   1.00
H39    H     0.53060   0.91090   0.83990   0.01267  Uiso   1.00
H40    H     0.38210   0.94310   0.85910   0.01267  Uiso   1.00
H41    H     0.03710   0.78700   0.85340   0.01267  Uiso   1.00
H42    H     0.98110   0.82660   0.82540   0.01267  Uiso   1.00
H43    H     0.12990   0.79380   0.80760   0.01267  Uiso   1.00
H44    H     0.85330   0.93810   0.79730   0.01267  Uiso   1.00
H45    H     0.89480   0.89550   0.82290   0.01267  Uiso   1.00
H46    H     0.94850   0.93860   0.83660   0.01267  Uiso   1.00
H47    H     0.54720   0.87790   0.71530   0.01267  Uiso   1.00
H48    H     0.57050   0.88180   0.76380   0.01267  Uiso   1.00
H49    H     0.51530   0.84010   0.74730   0.01267  Uiso   1.00
H50    H     0.29880   0.91800   0.70000   0.01267  Uiso   1.00
H51    H     0.63660   0.55010   0.14830   0.01267  Uiso   1.00
H52    H     0.52260   0.60720   0.11080   0.01267  Uiso   1.00
H53    H     0.95060   0.61830   0.04390   0.01267  Uiso   1.00
H54    H     0.06400   0.56100   0.08240   0.01267  Uiso   1.00
H55    H     0.43960   0.63310   0.04630   0.01267  Uiso   1.00
H56    H     0.32060   0.69020   0.00960   0.01267  Uiso   1.00
H57    H     0.71630   0.74680   0.00320   0.01267  Uiso   1.00
H58    H     0.83510   0.68970   0.04070   0.01267  Uiso   1.00
H59    H     0.55130   0.50130   0.04170   0.01267  Uiso   1.00
H60    H     0.74670   0.52550   0.99310   0.01267  Uiso   1.00
H61    H     0.08010   0.44800   0.04560   0.01267  Uiso   1.00
H62    H     0.88410   0.42280   0.09380   0.01267  Uiso   1.00
H63    H     0.40640   0.38980   0.08320   0.01267  Uiso   1.00
H64    H     0.44150   0.33990   0.08910   0.01267  Uiso   1.00
H65    H     0.32520   0.35910   0.05690   0.01267  Uiso   1.00
H66    H     0.82410   0.35340   0.21300   0.01267  Uiso   1.00
H67    H     0.80770   0.32540   0.17340   0.01267  Uiso   1.00
H68    H     0.92370   0.30760   0.20620   0.01267  Uiso   1.00
H69    H     0.79140   0.29730   0.06190   0.01267  Uiso   1.00
H70    H     0.79030   0.32290   0.10450   0.01267  Uiso   1.00
H71    H     0.88710   0.33660   0.06140   0.01267  Uiso   1.00
H72    H     0.42510   0.21530   0.12210   0.01267  Uiso   1.00
H73    H     0.45230   0.26380   0.11820   0.01267  Uiso   1.00
H74    H     0.35540   0.24730   0.15990   0.01267  Uiso   1.00
H75    H     0.21680   0.20000   0.08200   0.01267  Uiso   1.00
H76    H     0.83500   0.94990   0.35170   0.01267  Uiso   1.00
H77    H     0.74060   0.89280   0.38920   0.01267  Uiso   1.00
H78    H     0.11280   0.88170   0.45610   0.01267  Uiso   1.00
H79    H     0.20740   0.93900   0.41760   0.01267  Uiso   1.00
H80    H     0.61900   0.86690   0.45370   0.01267  Uiso   1.00
H81    H     0.52040   0.80980   0.49040   0.01267  Uiso   1.00
H82    H     0.96630   0.75320   0.49680   0.01267  Uiso   1.00
H83    H     0.06550   0.81030   0.45930   0.01267  Uiso   1.00
H84    H     0.59430   0.99870   0.45830   0.01267  Uiso   1.00
H85    H     0.76530   0.97450   0.50690   0.01267  Uiso   1.00
H86    H     0.07370   0.05200   0.45440   0.01267  Uiso   1.00
H87    H     0.90070   0.07720   0.40620   0.01267  Uiso   1.00
H88    H     0.37940   0.11020   0.41680   0.01267  Uiso   1.00
H89    H     0.37050   0.16010   0.41090   0.01267  Uiso   1.00
H90    H     0.24120   0.14090   0.44310   0.01267  Uiso   1.00
H91    H     0.89050   0.14660   0.28700   0.01267  Uiso   1.00
H92    H     0.80650   0.17460   0.32660   0.01267  Uiso   1.00
H93    H     0.93750   0.19240   0.29380   0.01267  Uiso   1.00
H94    H     0.65060   0.20270   0.43810   0.01267  Uiso   1.00
H95    H     0.71770   0.17710   0.39550   0.01267  Uiso   1.00
H96    H     0.78510   0.16340   0.43860   0.01267  Uiso   1.00
H97    H     0.26250   0.28470   0.37790   0.01267  Uiso   1.00
H98    H     0.33430   0.23620   0.38180   0.01267  Uiso   1.00
H99    H     0.26260   0.25270   0.34010   0.01267  Uiso   1.00
H100   H     0.99880   0.30000   0.41800   0.01267  Uiso   1.00
H101   H     0.81330   0.35170   0.55010   0.01267  Uiso   1.00
H102   H     0.87020   0.38920   0.60720   0.01267  Uiso   1.00
H103   H     0.43110   0.45610   0.61830   0.01267  Uiso   1.00
H104   H     0.37500   0.41760   0.56100   0.01267  Uiso   1.00
H105   H     0.92730   0.45370   0.63310   0.01267  Uiso   1.00
H106   H     0.98920   0.49040   0.69020   0.01267  Uiso   1.00
H107   H     0.53690   0.49680   0.74680   0.01267  Uiso   1.00
H108   H     0.47520   0.45930   0.68970   0.01267  Uiso   1.00
H109   H     0.94740   0.45830   0.50130   0.01267  Uiso   1.00
H110   H     0.72780   0.50690   0.52550   0.01267  Uiso   1.00
H111   H     0.47190   0.45440   0.44800   0.01267  Uiso   1.00
H112   H     0.69310   0.40620   0.42280   0.01267  Uiso   1.00
H113   H     0.20380   0.41680   0.38980   0.01267  Uiso   1.00
H114   H     0.21860   0.41090   0.33990   0.01267  Uiso   1.00
H115   H     0.31570   0.44310   0.35910   0.01267  Uiso   1.00
H116   H     0.82250   0.28700   0.35340   0.01267  Uiso   1.00
H117   H     0.86690   0.32660   0.32540   0.01267  Uiso   1.00
H118   H     0.76870   0.29380   0.30760   0.01267  Uiso   1.00
H119   H     0.91130   0.43810   0.29730   0.01267  Uiso   1.00
H120   H     0.88680   0.39550   0.32290   0.01267  Uiso   1.00
H121   H     0.77630   0.43860   0.33660   0.01267  Uiso   1.00
H122   H     0.35960   0.37790   0.21530   0.01267  Uiso   1.00
H123   H     0.28390   0.38180   0.26380   0.01267  Uiso   1.00
H124   H     0.39730   0.34010   0.24730   0.01267  Uiso   1.00
H125   H     0.58320   0.41800   0.20000   0.01267  Uiso   1.00
H126   H     0.21510   0.14830   0.94990   0.01267  Uiso   1.00
H127   H     0.36660   0.11080   0.89280   0.01267  Uiso   1.00
H128   H     0.00550   0.04390   0.88170   0.01267  Uiso   1.00
H129   H     0.85360   0.08240   0.93900   0.01267  Uiso   1.00
H130   H     0.51410   0.04630   0.86690   0.01267  Uiso   1.00
H131   H     0.66980   0.00960   0.80980   0.01267  Uiso   1.00
H132   H     0.28050   0.00320   0.75320   0.01267  Uiso   1.00
H133   H     0.12420   0.04070   0.81030   0.01267  Uiso   1.00
H134   H     0.40700   0.04170   0.99870   0.01267  Uiso   1.00
H135   H     0.26020   0.99310   0.97450   0.01267  Uiso   1.00
H136   H     0.87430   0.04560   0.05200   0.01267  Uiso   1.00
H137   H     0.02210   0.09380   0.07720   0.01267  Uiso   1.00
H138   H     0.51040   0.08320   0.11020   0.01267  Uiso   1.00
H139   H     0.46940   0.08910   0.16010   0.01267  Uiso   1.00
H140   H     0.61790   0.05690   0.14090   0.01267  Uiso   1.00
H141   H     0.96290   0.21300   0.14660   0.01267  Uiso   1.00
H142   H     0.01890   0.17340   0.17460   0.01267  Uiso   1.00
H143   H     0.87010   0.20620   0.19240   0.01267  Uiso   1.00
H144   H     0.14670   0.06190   0.20270   0.01267  Uiso   1.00
H145   H     0.10520   0.10450   0.17710   0.01267  Uiso   1.00
H146   H     0.05150   0.06140   0.16340   0.01267  Uiso   1.00
H147   H     0.45280   0.12210   0.28470   0.01267  Uiso   1.00
H148   H     0.42950   0.11820   0.23620   0.01267  Uiso   1.00
H149   H     0.48470   0.15990   0.25270   0.01267  Uiso   1.00
H150   H     0.70120   0.08200   0.30000   0.01267  Uiso   1.00
H151   H     0.36340   0.44990   0.85170   0.01267  Uiso   1.00
H152   H     0.47740   0.39280   0.88920   0.01267  Uiso   1.00
H153   H     0.04940   0.38170   0.95610   0.01267  Uiso   1.00
H154   H     0.93600   0.43900   0.91760   0.01267  Uiso   1.00
H155   H     0.56040   0.36690   0.95370   0.01267  Uiso   1.00
H156   H     0.67940   0.30980   0.99040   0.01267  Uiso   1.00
H157   H     0.28370   0.25320   0.99680   0.01267  Uiso   1.00
H158   H     0.16490   0.31030   0.95930   0.01267  Uiso   1.00
H159   H     0.44870   0.49870   0.95830   0.01267  Uiso   1.00
H160   H     0.25330   0.47450   0.00690   0.01267  Uiso   1.00
H161   H     0.91990   0.55200   0.95440   0.01267  Uiso   1.00
H162   H     0.11590   0.57720   0.90620   0.01267  Uiso   1.00
H163   H     0.59360   0.61020   0.91680   0.01267  Uiso   1.00
H164   H     0.55850   0.66010   0.91090   0.01267  Uiso   1.00
H165   H     0.67480   0.64090   0.94310   0.01267  Uiso   1.00
H166   H     0.17590   0.64660   0.78700   0.01267  Uiso   1.00
H167   H     0.19230   0.67460   0.82660   0.01267  Uiso   1.00
H168   H     0.07630   0.69240   0.79380   0.01267  Uiso   1.00
H169   H     0.20860   0.70270   0.93810   0.01267  Uiso   1.00
H170   H     0.20970   0.67710   0.89550   0.01267  Uiso   1.00
H171   H     0.11290   0.66340   0.93860   0.01267  Uiso   1.00
H172   H     0.57490   0.78470   0.87790   0.01267  Uiso   1.00
H173   H     0.54770   0.73620   0.88180   0.01267  Uiso   1.00
H174   H     0.64460   0.75270   0.84010   0.01267  Uiso   1.00
H175   H     0.78320   0.80000   0.91800   0.01267  Uiso   1.00
H176   H     0.16500   0.05010   0.64830   0.01267  Uiso   1.00
H177   H     0.25940   0.10720   0.61080   0.01267  Uiso   1.00
H178   H     0.88720   0.11830   0.54390   0.01267  Uiso   1.00
H179   H     0.79260   0.06100   0.58240   0.01267  Uiso   1.00
H180   H     0.38100   0.13310   0.54630   0.01267  Uiso   1.00
H181   H     0.47960   0.19020   0.50960   0.01267  Uiso   1.00
H182   H     0.03370   0.24680   0.50320   0.01267  Uiso   1.00
H183   H     0.93450   0.18970   0.54070   0.01267  Uiso   1.00
H184   H     0.40570   0.00130   0.54170   0.01267  Uiso   1.00
H185   H     0.23470   0.02550   0.49310   0.01267  Uiso   1.00
H186   H     0.92630   0.94800   0.54560   0.01267  Uiso   1.00
H187   H     0.09930   0.92280   0.59380   0.01267  Uiso   1.00
H188   H     0.62060   0.88980   0.58320   0.01267  Uiso   1.00
H189   H     0.62950   0.83990   0.58910   0.01267  Uiso   1.00
H190   H     0.75880   0.85910   0.55690   0.01267  Uiso   1.00
H191   H     0.10950   0.85340   0.71300   0.01267  Uiso   1.00
H192   H     0.19350   0.82540   0.67340   0.01267  Uiso   1.00
H193   H     0.06250   0.80760   0.70620   0.01267  Uiso   1.00
H194   H     0.34940   0.79730   0.56190   0.01267  Uiso   1.00
H195   H     0.28230   0.82290   0.60450   0.01267  Uiso   1.00
H196   H     0.21490   0.83660   0.56140   0.01267  Uiso   1.00
H197   H     0.73750   0.71530   0.62210   0.01267  Uiso   1.00
H198   H     0.66570   0.76380   0.61820   0.01267  Uiso   1.00
H199   H     0.73740   0.74730   0.65990   0.01267  Uiso   1.00
H200   H     0.00120   0.70000   0.58200   0.01267  Uiso   1.00
C1     C     0.44735   0.64288   0.48822   0.01267  Uiso   1.00
C2     C     0.41067   0.61883   0.45063   0.01267  Uiso   1.00
C3     C     0.26348   0.62729   0.43635   0.01267  Uiso   1.00
C4     C     0.22933   0.60467   0.40207   0.01267  Uiso   1.00
C5     C     0.34291   0.57274   0.38124   0.01267  Uiso   1.00
C6     C     0.49122   0.56481   0.39535   0.01267  Uiso   1.00
C7     C     0.52498   0.58791   0.42993   0.01267  Uiso   1.00
C8     C     0.30519   0.54784   0.34458   0.01267  Uiso   1.00
C9     C     0.15131   0.53797   0.34401   0.01267  Uiso   1.00
C10    C     0.11408   0.51598   0.30966   0.01267  Uiso   1.00
C11    C     0.22982   0.50338   0.27518   0.01267  Uiso   1.00
C12    C     0.38409   0.51222   0.27580   0.01267  Uiso   1.00
C13    C     0.42118   0.53457   0.31027   0.01267  Uiso   1.00
C14    C     0.18656   0.48036   0.23772   0.01267  Uiso   1.00
C15    C     0.01789   0.60821   0.55161   0.01267  Uiso   1.00
C16    C     0.15823   0.57393   0.53941   0.01267  Uiso   1.00
C17    C     0.14864   0.54296   0.50916   0.01267  Uiso   1.00
C18    C     0.28111   0.51386   0.49452   0.01267  Uiso   1.00
C19    C     0.42700   0.51490   0.50910   0.01267  Uiso   1.00
C20    C     0.43317   0.54496   0.54070   0.01267  Uiso   1.00
C21    C     0.30023   0.57408   0.55586   0.01267  Uiso   1.00
C22    C     0.72487   0.58400   0.63666   0.01267  Uiso   1.00
C23    C     0.58900   0.61941   0.63479   0.01267  Uiso   1.00
C24    C     0.45737   0.63171   0.66595   0.01267  Uiso   1.00
C25    C     0.36634   0.66558   0.64734   0.01267  Uiso   1.00
C26    C     0.21312   0.69194   0.66702   0.01267  Uiso   1.00
C27    C     0.16630   0.57805   0.68735   0.01267  Uiso   1.00
C28    C     0.28076   0.58797   0.71691   0.01267  Uiso   1.00
C29    C     0.41152   0.61075   0.70781   0.01267  Uiso   1.00
C30    C     0.48223   0.60956   0.74518   0.01267  Uiso   1.00
C31    C     0.62307   0.62924   0.75562   0.01267  Uiso   1.00
C32    C     0.07845   0.85712   0.01178   0.01267  Uiso   1.00
C33    C     0.98013   0.88117   0.04937   0.01267  Uiso   1.00
C34    C     0.82712   0.87271   0.06365   0.01267  Uiso   1.00
C35    C     0.73607   0.89533   0.09793   0.01267  Uiso   1.00
C36    C     0.79689   0.92726   0.11876   0.01267  Uiso   1.00
C37    C     0.95138   0.93519   0.10465   0.01267  Uiso   1.00
C38    C     0.04282   0.91209   0.07007   0.01267  Uiso   1.00
C39    C     0.69761   0.95216   0.15542   0.01267  Uiso   1.00
C40    C     0.53329   0.96203   0.15599   0.01267  Uiso   1.00
C41    C     0.43972   0.98402   0.19034   0.01267  Uiso   1.00
C42    C     0.50838   0.99662   0.22482   0.01267  Uiso   1.00
C43    C     0.67211   0.98778   0.22420   0.01267  Uiso   1.00
C44    C     0.76602   0.96543   0.18973   0.01267  Uiso   1.00
C45    C     0.40464   0.01964   0.26228   0.01267  Uiso   1.00
C46    C     0.67771   0.89179   0.94839   0.01267  Uiso   1.00
C47    C     0.77157   0.92607   0.96059   0.01267  Uiso   1.00
C48    C     0.70076   0.95704   0.99084   0.01267  Uiso   1.00
C49    C     0.78949   0.98614   0.00548   0.01267  Uiso   1.00
C50    C     0.95100   0.98510   0.99090   0.01267  Uiso   1.00
C51    C     0.01883   0.95504   0.95930   0.01267  Uiso   1.00
C52    C     0.93017   0.92592   0.94414   0.01267  Uiso   1.00
C53    C     0.44553   0.91600   0.86334   0.01267  Uiso   1.00
C54    C     0.34320   0.88059   0.86521   0.01267  Uiso   1.00
C55    C     0.25503   0.86829   0.83405   0.01267  Uiso   1.00
C56    C     0.17926   0.83442   0.85266   0.01267  Uiso   1.00
C57    C     0.07208   0.80806   0.83298   0.01267  Uiso   1.00
C58    C     0.93170   0.92195   0.81265   0.01267  Uiso   1.00
C59    C     0.08564   0.91203   0.78309   0.01267  Uiso   1.00
C60    C     0.23008   0.88925   0.79219   0.01267  Uiso   1.00
C61    C     0.33697   0.89044   0.75482   0.01267  Uiso   1.00
C62    C     0.50793   0.87076   0.74438   0.01267  Uiso   1.00
C63    C     0.93557   0.51178   0.14288   0.01267  Uiso   1.00
C64    C     0.86130   0.54937   0.11883   0.01267  Uiso   1.00
C65    C     0.69983   0.56365   0.12729   0.01267  Uiso   1.00
C66    C     0.63140   0.59793   0.10467   0.01267  Uiso   1.00
C67    C     0.72415   0.61876   0.07274   0.01267  Uiso   1.00
C68    C     0.88657   0.60465   0.06481   0.01267  Uiso   1.00
C69    C     0.95491   0.57007   0.08791   0.01267  Uiso   1.00
C70    C     0.64977   0.65542   0.04784   0.01267  Uiso   1.00
C71    C     0.49532   0.65599   0.03797   0.01267  Uiso   1.00
C72    C     0.42374   0.69034   0.01598   0.01267  Uiso   1.00
C73    C     0.50500   0.72482   0.00338   0.01267  Uiso   1.00
C74    C     0.65989   0.72420   0.01222   0.01267  Uiso   1.00
C75    C     0.73145   0.68973   0.03457   0.01267  Uiso   1.00
C76    C     0.42428   0.76228   0.98036   0.01267  Uiso   1.00
C77    C     0.56950   0.44839   0.10821   0.01267  Uiso   1.00
C78    C     0.69764   0.46059   0.07393   0.01267  Uiso   1.00
C79    C     0.65780   0.49084   0.04296   0.01267  Uiso   1.00
C80    C     0.77563   0.50548   0.01386   0.01267  Uiso   1.00
C81    C     0.93610   0.49090   0.01490   0.01267  Uiso   1.00
C82    C     0.97387   0.45930   0.04496   0.01267  Uiso   1.00
C83    C     0.85609   0.44414   0.07408   0.01267  Uiso   1.00
C84    C     0.36153   0.36334   0.08400   0.01267  Uiso   1.00
C85    C     0.22379   0.36521   0.11941   0.01267  Uiso   1.00
C86    C     0.12332   0.33405   0.13171   0.01267  Uiso   1.00
C87    C     0.01368   0.35266   0.16558   0.01267  Uiso   1.00
C88    C     0.88014   0.33298   0.19194   0.01267  Uiso   1.00
C89    C     0.85365   0.31265   0.07805   0.01267  Uiso   1.00
C90    C     0.99767   0.28309   0.08797   0.01267  Uiso   1.00
C91    C     0.11933   0.29219   0.11075   0.01267  Uiso   1.00
C92    C     0.22741   0.25482   0.10956   0.01267  Uiso   1.00
C93    C     0.37869   0.24438   0.12924   0.01267  Uiso   1.00
C94    C     0.09023   0.98822   0.35712   0.01267  Uiso   1.00
C95    C     0.02950   0.95063   0.38117   0.01267  Uiso   1.00
C96    C     0.89077   0.93635   0.37271   0.01267  Uiso   1.00
C97    C     0.83400   0.90207   0.39533   0.01267  Uiso   1.00
C98    C     0.91565   0.88124   0.42726   0.01267  Uiso   1.00
C99    C     0.05603   0.89535   0.43519   0.01267  Uiso   1.00
C100   C     0.11289   0.92993   0.41209   0.01267  Uiso   1.00
C101   C     0.85303   0.84458   0.45216   0.01267  Uiso   1.00
C102   C     0.68928   0.84401   0.46203   0.01267  Uiso   1.00
C103   C     0.63006   0.80966   0.48402   0.01267  Uiso   1.00
C104   C     0.73320   0.77518   0.49662   0.01267  Uiso   1.00
C105   C     0.89631   0.77580   0.48778   0.01267  Uiso   1.00
C106   C     0.95575   0.81027   0.46543   0.01267  Uiso   1.00
C107   C     0.66692   0.73772   0.51964   0.01267  Uiso   1.00
C108   C     0.62610   0.05161   0.39179   0.01267  Uiso   1.00
C109   C     0.73216   0.03941   0.42607   0.01267  Uiso   1.00
C110   C     0.69160   0.00916   0.45704   0.01267  Uiso   1.00
C111   C     0.79497   0.99452   0.48614   0.01267  Uiso   1.00
C112   C     0.94190   0.00910   0.48510   0.01267  Uiso   1.00
C113   C     0.97813   0.04070   0.45504   0.01267  Uiso   1.00
C114   C     0.87431   0.05586   0.42592   0.01267  Uiso   1.00
C115   C     0.30887   0.13666   0.41600   0.01267  Uiso   1.00
C116   C     0.20841   0.13479   0.38059   0.01267  Uiso   1.00
C117   C     0.08908   0.16595   0.36829   0.01267  Uiso   1.00
C118   C     0.03192   0.14734   0.33442   0.01267  Uiso   1.00
C119   C     0.90506   0.16702   0.30806   0.01267  Uiso   1.00
C120   C     0.74435   0.18735   0.42195   0.01267  Uiso   1.00
C121   C     0.86873   0.21691   0.41203   0.01267  Uiso   1.00
C122   C     0.02227   0.20781   0.38925   0.01267  Uiso   1.00
C123   C     0.09179   0.24518   0.39044   0.01267  Uiso   1.00
C124   C     0.25231   0.25562   0.37076   0.01267  Uiso   1.00
C125   C     0.55265   0.35712   0.51178   0.01267  Uiso   1.00
C126   C     0.58933   0.38117   0.54937   0.01267  Uiso   1.00
C127   C     0.73652   0.37271   0.56365   0.01267  Uiso   1.00
C128   C     0.77067   0.39533   0.59793   0.01267  Uiso   1.00
C129   C     0.65709   0.42726   0.61876   0.01267  Uiso   1.00
C130   C     0.50878   0.43519   0.60465   0.01267  Uiso   1.00
C131   C     0.47502   0.41209   0.57007   0.01267  Uiso   1.00
C132   C     0.69481   0.45216   0.65542   0.01267  Uiso   1.00
C133   C     0.84869   0.46203   0.65599   0.01267  Uiso   1.00
C134   C     0.88592   0.48402   0.69034   0.01267  Uiso   1.00
C135   C     0.77018   0.49662   0.72482   0.01267  Uiso   1.00
C136   C     0.61591   0.48778   0.72420   0.01267  Uiso   1.00
C137   C     0.57882   0.46543   0.68973   0.01267  Uiso   1.00
C138   C     0.81344   0.51964   0.76228   0.01267  Uiso   1.00
C139   C     0.98211   0.39179   0.44839   0.01267  Uiso   1.00
C140   C     0.84177   0.42607   0.46059   0.01267  Uiso   1.00
C141   C     0.85136   0.45704   0.49084   0.01267  Uiso   1.00
C142   C     0.71889   0.48614   0.50548   0.01267  Uiso   1.00
C143   C     0.57300   0.48510   0.49090   0.01267  Uiso   1.00
C144   C     0.56683   0.45504   0.45930   0.01267  Uiso   1.00
C145   C     0.69977   0.42592   0.44414   0.01267  Uiso   1.00
C146   C     0.27513   0.41600   0.36334   0.01267  Uiso   1.00
C147   C     0.41100   0.38059   0.36521   0.01267  Uiso   1.00
C148   C     0.54263   0.36829   0.33405   0.01267  Uiso   1.00
C149   C     0.63366   0.33442   0.35266   0.01267  Uiso   1.00
C150   C     0.78688   0.30806   0.33298   0.01267  Uiso   1.00
C151   C     0.83370   0.42195   0.31265   0.01267  Uiso   1.00
C152   C     0.71924   0.41203   0.28309   0.01267  Uiso   1.00
C153   C     0.58848   0.38925   0.29219   0.01267  Uiso   1.00
C154   C     0.51777   0.39044   0.25482   0.01267  Uiso   1.00
C155   C     0.37693   0.37076   0.24438   0.01267  Uiso   1.00
C156   C     0.92155   0.14288   0.98822   0.01267  Uiso   1.00
C157   C     0.01987   0.11883   0.95063   0.01267  Uiso   1.00
C158   C     0.17288   0.12729   0.93635   0.01267  Uiso   1.00
C159   C     0.26393   0.10467   0.90207   0.01267  Uiso   1.00
C160   C     0.20311   0.07274   0.88124   0.01267  Uiso   1.00
C161   C     0.04862   0.06481   0.89535   0.01267  Uiso   1.00
C162   C     0.95718   0.08791   0.92993   0.01267  Uiso   1.00
C163   C     0.30239   0.04784   0.84458   0.01267  Uiso   1.00
C164   C     0.46671   0.03797   0.84401   0.01267  Uiso   1.00
C165   C     0.56028   0.01598   0.80966   0.01267  Uiso   1.00
C166   C     0.49162   0.00338   0.77518   0.01267  Uiso   1.00
C167   C     0.32789   0.01222   0.77580   0.01267  Uiso   1.00
C168   C     0.23398   0.03457   0.81027   0.01267  Uiso   1.00
C169   C     0.59536   0.98036   0.73772   0.01267  Uiso   1.00
C170   C     0.32229   0.10821   0.05161   0.01267  Uiso   1.00
C171   C     0.22843   0.07393   0.03941   0.01267  Uiso   1.00
C172   C     0.29924   0.04296   0.00916   0.01267  Uiso   1.00
C173   C     0.21051   0.01386   0.99452   0.01267  Uiso   1.00
C174   C     0.04900   0.01490   0.00910   0.01267  Uiso   1.00
C175   C     0.98117   0.04496   0.04070   0.01267  Uiso   1.00
C176   C     0.06983   0.07408   0.05586   0.01267  Uiso   1.00
C177   C     0.55447   0.08400   0.13666   0.01267  Uiso   1.00
C178   C     0.65680   0.11941   0.13479   0.01267  Uiso   1.00
C179   C     0.74497   0.13171   0.16595   0.01267  Uiso   1.00
C180   C     0.82074   0.16558   0.14734   0.01267  Uiso   1.00
C181   C     0.92792   0.19194   0.16702   0.01267  Uiso   1.00
C182   C     0.06830   0.07805   0.18735   0.01267  Uiso   1.00
C183   C     0.91436   0.08797   0.21691   0.01267  Uiso   1.00
C184   C     0.76992   0.11075   0.20781   0.01267  Uiso   1.00
C185   C     0.66303   0.10956   0.24518   0.01267  Uiso   1.00
C186   C     0.49207   0.12924   0.25562   0.01267  Uiso   1.00
C187   C     0.06443   0.48822   0.85712   0.01267  Uiso   1.00
C188   C     0.13870   0.45063   0.88117   0.01267  Uiso   1.00
C189   C     0.30017   0.43635   0.87271   0.01267  Uiso   1.00
C190   C     0.36860   0.40207   0.89533   0.01267  Uiso   1.00
C191   C     0.27585   0.38124   0.92726   0.01267  Uiso   1.00
C192   C     0.11343   0.39535   0.93519   0.01267  Uiso   1.00
C193   C     0.04509   0.42993   0.91209   0.01267  Uiso   1.00
C194   C     0.35023   0.34458   0.95216   0.01267  Uiso   1.00
C195   C     0.50468   0.34401   0.96203   0.01267  Uiso   1.00
C196   C     0.57626   0.30966   0.98402   0.01267  Uiso   1.00
C197   C     0.49500   0.27518   0.99662   0.01267  Uiso   1.00
C198   C     0.34011   0.27580   0.98778   0.01267  Uiso   1.00
C199   C     0.26855   0.31027   0.96543   0.01267  Uiso   1.00
C200   C     0.57572   0.23772   0.01964   0.01267  Uiso   1.00
C201   C     0.43050   0.55161   0.89179   0.01267  Uiso   1.00
C202   C     0.30236   0.53941   0.92607   0.01267  Uiso   1.00
C203   C     0.34220   0.50916   0.95704   0.01267  Uiso   1.00
C204   C     0.22437   0.49452   0.98614   0.01267  Uiso   1.00
C205   C     0.06390   0.50910   0.98510   0.01267  Uiso   1.00
C206   C     0.02613   0.54070   0.95504   0.01267  Uiso   1.00
C207   C     0.14391   0.55586   0.92592   0.01267  Uiso   1.00
C208   C     0.63847   0.63666   0.91600   0.01267  Uiso   1.00
C209   C     0.77621   0.63479   0.88059   0.01267  Uiso   1.00
C210   C     0.87668   0.66595   0.86829   0.01267  Uiso   1.00
C211   C     0.98632   0.64734   0.83442   0.01267  Uiso   1.00
C212   C     0.11986   0.66702   0.80806   0.01267  Uiso   1.00
C213   C     0.14635   0.68735   0.92195   0.01267  Uiso   1.00
C214   C     0.00233   0.71691   0.91203   0.01267  Uiso   1.00
C215   C     0.88067   0.70781   0.88925   0.01267  Uiso   1.00
C216   C     0.77259   0.74518   0.89044   0.01267  Uiso   1.00
C217   C     0.62131   0.75562   0.87076   0.01267  Uiso   1.00
C218   C     0.90977   0.01178   0.64288   0.01267  Uiso   1.00
C219   C     0.97050   0.04937   0.61883   0.01267  Uiso   1.00
C220   C     0.10923   0.06365   0.62729   0.01267  Uiso   1.00
C221   C     0.16600   0.09793   0.60467   0.01267  Uiso   1.00
C222   C     0.08435   0.11876   0.57274   0.01267  Uiso   1.00
C223   C     0.94397   0.10465   0.56481   0.01267  Uiso   1.00
C224   C     0.88711   0.07007   0.58791   0.01267  Uiso   1.00
C225   C     0.14697   0.15542   0.54784   0.01267  Uiso   1.00
C226   C     0.31072   0.15599   0.53797   0.01267  Uiso   1.00
C227   C     0.36994   0.19034   0.51598   0.01267  Uiso   1.00
C228   C     0.26680   0.22482   0.50338   0.01267  Uiso   1.00
C229   C     0.10369   0.22420   0.51222   0.01267  Uiso   1.00
C230   C     0.04425   0.18973   0.53457   0.01267  Uiso   1.00
C231   C     0.33308   0.26228   0.48036   0.01267  Uiso   1.00
C232   C     0.37390   0.94839   0.60821   0.01267  Uiso   1.00
C233   C     0.26784   0.96059   0.57393   0.01267  Uiso   1.00
C234   C     0.30840   0.99084   0.54296   0.01267  Uiso   1.00
C235   C     0.20503   0.00548   0.51386   0.01267  Uiso   1.00
C236   C     0.05810   0.99090   0.51490   0.01267  Uiso   1.00
C237   C     0.02187   0.95930   0.54496   0.01267  Uiso   1.00
C238   C     0.12569   0.94414   0.57408   0.01267  Uiso   1.00
C239   C     0.69113   0.86334   0.58400   0.01267  Uiso   1.00
C240   C     0.79159   0.86521   0.61941   0.01267  Uiso   1.00
C241   C     0.91092   0.83405   0.63171   0.01267  Uiso   1.00
C242   C     0.96808   0.85266   0.66558   0.01267  Uiso   1.00
C243   C     0.09494   0.83298   0.69194   0.01267  Uiso   1.00
C244   C     0.25565   0.81265   0.57805   0.01267  Uiso   1.00
C245   C     0.13127   0.78309   0.58797   0.01267  Uiso   1.00
C246   C     0.97773   0.79219   0.61075   0.01267  Uiso   1.00
C247   C     0.90821   0.75482   0.60956   0.01267  Uiso   1.00
C248   C     0.74769   0.74438   0.62924   0.01267  Uiso   1.00
N1     N     0.57732   0.64450   0.59994   0.01267  Uiso   1.00
N2     N     0.43735   0.67307   0.60743   0.01267  Uiso   1.00
N3     N     0.27012   0.57376   0.75800   0.01267  Uiso   1.00
N4     N     0.39571   0.58722   0.77416   0.01267  Uiso   1.00
N5     N     0.32176   0.85550   0.90006   0.01267  Uiso   1.00
N6     N     0.21785   0.82693   0.89257   0.01267  Uiso   1.00
N7     N     0.10188   0.92624   0.74200   0.01267  Uiso   1.00
N8     N     0.25709   0.91278   0.72584   0.01267  Uiso   1.00
N9     N     0.17726   0.40006   0.14450   0.01267  Uiso   1.00
N10    N     0.04478   0.39257   0.17307   0.01267  Uiso   1.00
N11    N     0.02812   0.24200   0.07376   0.01267  Uiso   1.00
N12    N     0.16987   0.22584   0.08722   0.01267  Uiso   1.00
N13    N     0.22182   0.09994   0.35550   0.01267  Uiso   1.00
N14    N     0.11042   0.10743   0.32693   0.01267  Uiso   1.00
N15    N     0.84388   0.25800   0.42624   0.01267  Uiso   1.00
N16    N     0.98293   0.27416   0.41278   0.01267  Uiso   1.00
N17    N     0.42268   0.35550   0.40006   0.01267  Uiso   1.00
N18    N     0.56265   0.32693   0.39257   0.01267  Uiso   1.00
N19    N     0.72988   0.42624   0.24200   0.01267  Uiso   1.00
N20    N     0.60429   0.41278   0.22584   0.01267  Uiso   1.00
N21    N     0.67824   0.14450   0.09994   0.01267  Uiso   1.00
N22    N     0.78215   0.17307   0.10743   0.01267  Uiso   1.00
N23    N     0.89812   0.07376   0.25800   0.01267  Uiso   1.00
N24    N     0.74291   0.08722   0.27416   0.01267  Uiso   1.00
N25    N     0.82274   0.59994   0.85550   0.01267  Uiso   1.00
N26    N     0.95522   0.60743   0.82693   0.01267  Uiso   1.00
N27    N     0.97188   0.75800   0.92624   0.01267  Uiso   1.00
N28    N     0.83013   0.77416   0.91278   0.01267  Uiso   1.00
N29    N     0.77818   0.90006   0.64450   0.01267  Uiso   1.00
N30    N     0.88958   0.89257   0.67307   0.01267  Uiso   1.00
N31    N     0.15612   0.74200   0.57376   0.01267  Uiso   1.00
N32    N     0.01707   0.72584   0.58722   0.01267  Uiso   1.00
O1     O     0.58692   0.63525   0.49771   0.01267  Uiso   1.00
O2     O     0.33506   0.66860   0.50808   0.01267  Uiso   1.00
O3     O     0.29125   0.47306   0.20544   0.01267  Uiso   1.00
O4     O     0.04733   0.47007   0.24147   0.01267  Uiso   1.00
O5     O     0.89412   0.60409   0.53347   0.01267  Uiso   1.00
O6     O     0.02400   0.63722   0.57718   0.01267  Uiso   1.00
O7     O     0.21988   0.86475   0.00229   0.01267  Uiso   1.00
O8     O     0.01174   0.83140   0.99192   0.01267  Uiso   1.00
O9     O     0.46975   0.02694   0.29456   0.01267  Uiso   1.00
O10    O     0.25887   0.02993   0.25853   0.01267  Uiso   1.00
O11    O     0.53168   0.89591   0.96653   0.01267  Uiso   1.00
O12    O     0.73840   0.86278   0.92282   0.01267  Uiso   1.00
O13    O     0.08463   0.50229   0.13525   0.01267  Uiso   1.00
O14    O     0.84314   0.49192   0.16860   0.01267  Uiso   1.00
O15    O     0.49669   0.79456   0.97306   0.01267  Uiso   1.00
O16    O     0.28880   0.75853   0.97007   0.01267  Uiso   1.00
O17    O     0.42759   0.46653   0.10409   0.01267  Uiso   1.00
O18    O     0.60118   0.42282   0.13722   0.01267  Uiso   1.00
O19    O     0.22217   0.99771   0.36475   0.01267  Uiso   1.00
O20    O     0.00366   0.00808   0.33140   0.01267  Uiso   1.00
O21    O     0.76431   0.70544   0.52694   0.01267  Uiso   1.00
O22    O     0.51740   0.74147   0.52993   0.01267  Uiso   1.00
O23    O     0.49821   0.03347   0.39591   0.01267  Uiso   1.00
O24    O     0.66122   0.07718   0.36278   0.01267  Uiso   1.00
O25    O     0.41308   0.36475   0.50229   0.01267  Uiso   1.00
O26    O     0.66494   0.33140   0.49192   0.01267  Uiso   1.00
O27    O     0.70875   0.52694   0.79456   0.01267  Uiso   1.00
O28    O     0.95267   0.52993   0.75853   0.01267  Uiso   1.00
O29    O     0.10588   0.39591   0.46653   0.01267  Uiso   1.00
O30    O     0.97600   0.36278   0.42282   0.01267  Uiso   1.00
O31    O     0.78012   0.13525   0.99771   0.01267  Uiso   1.00
O32    O     0.98826   0.16860   0.00808   0.01267  Uiso   1.00
O33    O     0.53025   0.97306   0.70544   0.01267  Uiso   1.00
O34    O     0.74113   0.97007   0.74147   0.01267  Uiso   1.00
O35    O     0.46832   0.10409   0.03347   0.01267  Uiso   1.00
O36    O     0.26160   0.13722   0.07718   0.01267  Uiso   1.00
O37    O     0.91537   0.49771   0.86475   0.01267  Uiso   1.00
O38    O     0.15686   0.50808   0.83140   0.01267  Uiso   1.00
O39    O     0.50331   0.20544   0.02694   0.01267  Uiso   1.00
O40    O     0.71120   0.24147   0.02993   0.01267  Uiso   1.00
O41    O     0.57241   0.53347   0.89591   0.01267  Uiso   1.00
O42    O     0.39882   0.57718   0.86278   0.01267  Uiso   1.00
O43    O     0.77783   0.00229   0.63525   0.01267  Uiso   1.00
O44    O     0.99634   0.99192   0.66860   0.01267  Uiso   1.00
O45    O     0.23569   0.29456   0.47306   0.01267  Uiso   1.00
O46    O     0.48260   0.25853   0.47007   0.01267  Uiso   1.00
O47    O     0.50179   0.96653   0.60409   0.01267  Uiso   1.00
O48    O     0.33878   0.92282   0.63722   0.01267  Uiso   1.00
