data_BEXTUV_clean
_audit_creation_date              2014-07-02
_audit_creation_method            'Materials Studio'
_symmetry_space_group_name_H-M    'P1'
_symmetry_Int_Tables_number       1
_symmetry_cell_setting            triclinic
loop_
_symmetry_equiv_pos_as_xyz
  x,y,z
_cell_length_a                    11.1865
_cell_length_b                    11.1865
_cell_length_c                    11.9247
_cell_angle_alpha                 69.7503
_cell_angle_beta                  69.7503
_cell_angle_gamma                 82.3649
loop_
_atom_site_label
_atom_site_type_symbol
_atom_site_fract_x
_atom_site_fract_y
_atom_site_fract_z
_atom_site_U_iso_or_equiv
_atom_site_adp_type
_atom_site_occupancy
Mn1    Mn    0.42128   0.77388   0.59732   0.01267  Uiso   1.00
Mn2    Mn    0.22612   0.57872   0.90268   0.01267  Uiso   1.00
H1     H     0.86920   0.66900   0.75060   0.01267  Uiso   1.00
H2     H     0.15930   0.86410   0.45200   0.01267  Uiso   1.00
H3     H     0.80710   0.89370   0.42530   0.01267  Uiso   1.00
H4     H     0.93940   0.05100   0.21350   0.01267  Uiso   1.00
H5     H     0.94980   0.90420   0.21770   0.01267  Uiso   1.00
H6     H     0.42990   0.49830   0.75280   0.01267  Uiso   1.00
H7     H     0.45630   0.58210   0.80460   0.01267  Uiso   1.00
H8     H     0.33100   0.13080   0.74940   0.01267  Uiso   1.00
H9     H     0.13590   0.84070   0.04800   0.01267  Uiso   1.00
H10    H     0.10630   0.19290   0.07470   0.01267  Uiso   1.00
H11    H     0.94900   0.06060   0.28650   0.01267  Uiso   1.00
H12    H     0.09580   0.05020   0.28230   0.01267  Uiso   1.00
H13    H     0.50170   0.57010   0.74720   0.01267  Uiso   1.00
H14    H     0.41790   0.54370   0.69540   0.01267  Uiso   1.00
C1     C     0.68155   0.73575   0.64790   0.01267  Uiso   1.00
C2     C     0.81829   0.77529   0.59590   0.01267  Uiso   1.00
C3     C     0.90023   0.72563   0.66660   0.01267  Uiso   1.00
C4     C     0.02905   0.75985   0.61300   0.01267  Uiso   1.00
C5     C     0.12292   0.70992   0.68350   0.01267  Uiso   1.00
C6     C     0.07191   0.84191   0.48930   0.01267  Uiso   1.00
C7     C     0.99080   0.89140   0.42050   0.01267  Uiso   1.00
C8     C     0.86358   0.85898   0.47290   0.01267  Uiso   1.00
C9     C     0.99830   0.97650   0.20590   0.01267  Uiso   1.00
C10    C     0.26425   0.31845   0.85210   0.01267  Uiso   1.00
C11    C     0.22471   0.18171   0.90410   0.01267  Uiso   1.00
C12    C     0.27437   0.09977   0.83340   0.01267  Uiso   1.00
C13    C     0.24015   0.97095   0.88700   0.01267  Uiso   1.00
C14    C     0.29008   0.87708   0.81650   0.01267  Uiso   1.00
C15    C     0.15809   0.92809   0.01070   0.01267  Uiso   1.00
C16    C     0.10860   0.00920   0.07950   0.01267  Uiso   1.00
C17    C     0.14102   0.13642   0.02710   0.01267  Uiso   1.00
C18    C     0.02350   0.00170   0.29410   0.01267  Uiso   1.00
O1     O     0.60800   0.80372   0.59050   0.01267  Uiso   1.00
O2     O     0.64760   0.63836   0.74260   0.01267  Uiso   1.00
O3     O     0.08390   0.64698   0.79920   0.01267  Uiso   1.00
O4     O     0.23610   0.73578   0.62130   0.01267  Uiso   1.00
O5     O     0.06810   0.94210   0.29380   0.01267  Uiso   1.00
O6     O     0.19628   0.39200   0.90950   0.01267  Uiso   1.00
O7     O     0.36164   0.35240   0.75740   0.01267  Uiso   1.00
O8     O     0.35302   0.91610   0.70080   0.01267  Uiso   1.00
O9     O     0.26422   0.76390   0.87870   0.01267  Uiso   1.00
O10    O     0.05790   0.93190   0.20620   0.01267  Uiso   1.00
O11    O     0.41800   0.58200   0.75000   0.01267  Uiso   1.00
Mn3    Mn    0.57872   0.22612   0.40268   0.01267  Uiso   1.00
Mn4    Mn    0.77388   0.42128   0.09732   0.01267  Uiso   1.00
H15    H     0.13080   0.33100   0.24940   0.01267  Uiso   1.00
H16    H     0.84070   0.13590   0.54800   0.01267  Uiso   1.00
H17    H     0.19290   0.10630   0.57470   0.01267  Uiso   1.00
H18    H     0.06060   0.94900   0.78650   0.01267  Uiso   1.00
H19    H     0.05020   0.09580   0.78230   0.01267  Uiso   1.00
H20    H     0.57010   0.50170   0.24720   0.01267  Uiso   1.00
H21    H     0.54370   0.41790   0.19540   0.01267  Uiso   1.00
H22    H     0.66900   0.86920   0.25060   0.01267  Uiso   1.00
H23    H     0.86410   0.15930   0.95200   0.01267  Uiso   1.00
H24    H     0.89370   0.80710   0.92530   0.01267  Uiso   1.00
H25    H     0.05100   0.93940   0.71350   0.01267  Uiso   1.00
H26    H     0.90420   0.94980   0.71770   0.01267  Uiso   1.00
H27    H     0.49830   0.42990   0.25280   0.01267  Uiso   1.00
H28    H     0.58210   0.45630   0.30460   0.01267  Uiso   1.00
C19    C     0.31845   0.26425   0.35210   0.01267  Uiso   1.00
C20    C     0.18171   0.22471   0.40410   0.01267  Uiso   1.00
C21    C     0.09977   0.27437   0.33340   0.01267  Uiso   1.00
C22    C     0.97095   0.24015   0.38700   0.01267  Uiso   1.00
C23    C     0.87708   0.29008   0.31650   0.01267  Uiso   1.00
C24    C     0.92809   0.15809   0.51070   0.01267  Uiso   1.00
C25    C     0.00920   0.10860   0.57950   0.01267  Uiso   1.00
C26    C     0.13642   0.14102   0.52710   0.01267  Uiso   1.00
C27    C     0.00170   0.02350   0.79410   0.01267  Uiso   1.00
C28    C     0.73575   0.68155   0.14790   0.01267  Uiso   1.00
C29    C     0.77529   0.81829   0.09590   0.01267  Uiso   1.00
C30    C     0.72563   0.90023   0.16660   0.01267  Uiso   1.00
C31    C     0.75985   0.02905   0.11300   0.01267  Uiso   1.00
C32    C     0.70992   0.12292   0.18350   0.01267  Uiso   1.00
C33    C     0.84191   0.07191   0.98930   0.01267  Uiso   1.00
C34    C     0.89140   0.99080   0.92050   0.01267  Uiso   1.00
C35    C     0.85898   0.86358   0.97290   0.01267  Uiso   1.00
C36    C     0.97650   0.99830   0.70590   0.01267  Uiso   1.00
O12    O     0.39200   0.19628   0.40950   0.01267  Uiso   1.00
O13    O     0.35240   0.36164   0.25740   0.01267  Uiso   1.00
O14    O     0.91610   0.35302   0.20080   0.01267  Uiso   1.00
O15    O     0.76390   0.26422   0.37870   0.01267  Uiso   1.00
O16    O     0.93190   0.05790   0.70620   0.01267  Uiso   1.00
O17    O     0.80372   0.60800   0.09050   0.01267  Uiso   1.00
O18    O     0.63836   0.64760   0.24260   0.01267  Uiso   1.00
O19    O     0.64698   0.08390   0.29920   0.01267  Uiso   1.00
O20    O     0.73578   0.23610   0.12130   0.01267  Uiso   1.00
O21    O     0.94210   0.06810   0.79380   0.01267  Uiso   1.00
O22    O     0.58200   0.41800   0.25000   0.01267  Uiso   1.00
