data_BEZSIK_clean
_audit_creation_date              2014-07-02
_audit_creation_method            'Materials Studio'
_symmetry_space_group_name_H-M    'P1'
_symmetry_Int_Tables_number       1
_symmetry_cell_setting            triclinic
loop_
_symmetry_equiv_pos_as_xyz
  x,y,z
_cell_length_a                    10.3900
_cell_length_b                    11.6010
_cell_length_c                    10.4980
_cell_angle_alpha                 115.1500
_cell_angle_beta                  90.0000
_cell_angle_gamma                 90.0000
loop_
_atom_site_label
_atom_site_type_symbol
_atom_site_fract_x
_atom_site_fract_y
_atom_site_fract_z
_atom_site_U_iso_or_equiv
_atom_site_adp_type
_atom_site_occupancy
Bi1    Bi    0.34596   0.72248   0.75216   0.01267  Uiso   1.00
Bi2    Bi    0.84596   0.27752   0.74784   0.01267  Uiso   1.00
Bi3    Bi    0.65404   0.27752   0.24784   0.01267  Uiso   1.00
Bi4    Bi    0.15404   0.72248   0.25216   0.01267  Uiso   1.00
H1     H     0.53540   0.97500   0.61590   0.01267  Uiso   1.00
H2     H     0.52200   0.86900   0.46150   0.01267  Uiso   1.00
H3     H     0.03540   0.02500   0.88410   0.01267  Uiso   1.00
H4     H     0.02200   0.13100   0.03850   0.01267  Uiso   1.00
H5     H     0.46460   0.02500   0.38410   0.01267  Uiso   1.00
H6     H     0.47800   0.13100   0.53850   0.01267  Uiso   1.00
H7     H     0.96460   0.97500   0.11590   0.01267  Uiso   1.00
H8     H     0.97800   0.86900   0.96150   0.01267  Uiso   1.00
C1     C     0.48890   0.95060   0.52820   0.01267  Uiso   1.00
C2     C     0.98890   0.04940   0.97180   0.01267  Uiso   1.00
C3     C     0.51110   0.04940   0.47180   0.01267  Uiso   1.00
C4     C     0.01110   0.95060   0.02820   0.01267  Uiso   1.00
S1     S     0.32310   0.93570   0.55700   0.01267  Uiso   1.00
S2     S     0.82310   0.06430   0.94300   0.01267  Uiso   1.00
S3     S     0.67690   0.06430   0.44300   0.01267  Uiso   1.00
S4     S     0.17690   0.93570   0.05700   0.01267  Uiso   1.00
O1     O     0.27340   0.05740   0.65150   0.01267  Uiso   1.00
O2     O     0.31520   0.83550   0.60580   0.01267  Uiso   1.00
O3     O     0.26350   0.89130   0.41570   0.01267  Uiso   1.00
O4     O     0.77340   0.94260   0.84850   0.01267  Uiso   1.00
O5     O     0.81520   0.16450   0.89420   0.01267  Uiso   1.00
O6     O     0.76350   0.10870   0.08430   0.01267  Uiso   1.00
O7     O     0.72660   0.94260   0.34850   0.01267  Uiso   1.00
O8     O     0.68480   0.16450   0.39420   0.01267  Uiso   1.00
O9     O     0.73650   0.10870   0.58430   0.01267  Uiso   1.00
O10    O     0.22660   0.05740   0.15150   0.01267  Uiso   1.00
O11    O     0.18480   0.83550   0.10580   0.01267  Uiso   1.00
O12    O     0.23650   0.89130   0.91570   0.01267  Uiso   1.00
