data_BIMDOR_charged
_audit_creation_date              2014-07-02
_audit_creation_method            'Materials Studio'
_symmetry_space_group_name_H-M    'P1'
_symmetry_Int_Tables_number       1
_symmetry_cell_setting            triclinic
loop_
_symmetry_equiv_pos_as_xyz
  x,y,z
_cell_length_a                    7.8431
_cell_length_b                    24.1958
_cell_length_c                    24.1958
_cell_angle_alpha                 61.1520
_cell_angle_beta                  83.7971
_cell_angle_gamma                 96.2029
loop_
_atom_site_label
_atom_site_type_symbol
_atom_site_fract_x
_atom_site_fract_y
_atom_site_fract_z
_atom_site_U_iso_or_equiv
_atom_site_adp_type
_atom_site_occupancy
Zn1    Zn    0.69430   0.62040   0.47680   0.01267  Uiso   1.00
Zn2    Zn    0.13980   0.71050   0.42650   0.01267  Uiso   1.00
Zn3    Zn    0.11570   0.47310   0.66820   0.01267  Uiso   1.00
Zn4    Zn    0.17110   0.47680   0.90280   0.01267  Uiso   1.00
Zn5    Zn    0.56630   0.42650   0.86300   0.01267  Uiso   1.00
Zn6    Zn    0.78390   0.66820   0.85870   0.01267  Uiso   1.00
Zn7    Zn    0.07390   0.90280   0.62040   0.01267  Uiso   1.00
Zn8    Zn    0.42930   0.86300   0.71050   0.01267  Uiso   1.00
Zn9    Zn    0.64260   0.85870   0.47310   0.01267  Uiso   1.00
Zn10   Zn    0.30570   0.37960   0.52320   0.01267  Uiso   1.00
Zn11   Zn    0.86020   0.28950   0.57350   0.01267  Uiso   1.00
Zn12   Zn    0.88430   0.52690   0.33180   0.01267  Uiso   1.00
Zn13   Zn    0.82890   0.52320   0.09720   0.01267  Uiso   1.00
Zn14   Zn    0.43370   0.57350   0.13700   0.01267  Uiso   1.00
Zn15   Zn    0.21610   0.33180   0.14130   0.01267  Uiso   1.00
Zn16   Zn    0.92610   0.09720   0.37960   0.01267  Uiso   1.00
Zn17   Zn    0.57070   0.13700   0.28950   0.01267  Uiso   1.00
Zn18   Zn    0.35740   0.14130   0.52690   0.01267  Uiso   1.00
P1     P     0.00980   0.57750   0.54940   0.01267  Uiso   1.00
P2     P     0.80410   0.76490   0.43950   0.01267  Uiso   1.00
P3     P     0.94860   0.65660   0.34800   0.01267  Uiso   1.00
P4     P     0.55920   0.54940   0.87310   0.01267  Uiso   1.00
P5     P     0.24360   0.43950   0.79560   0.01267  Uiso   1.00
P6     P     0.29660   0.34800   0.99540   0.01267  Uiso   1.00
P7     P     0.43230   0.87310   0.57750   0.01267  Uiso   1.00
P8     P     0.03920   0.79560   0.76490   0.01267  Uiso   1.00
P9     P     0.29200   0.99540   0.65660   0.01267  Uiso   1.00
P10    P     0.99020   0.42250   0.45060   0.01267  Uiso   1.00
P11    P     0.19590   0.23510   0.56050   0.01267  Uiso   1.00
P12    P     0.05140   0.34340   0.65200   0.01267  Uiso   1.00
P13    P     0.44080   0.45060   0.12690   0.01267  Uiso   1.00
P14    P     0.75640   0.56050   0.20440   0.01267  Uiso   1.00
P15    P     0.70340   0.65200   0.00460   0.01267  Uiso   1.00
P16    P     0.56770   0.12690   0.42250   0.01267  Uiso   1.00
P17    P     0.96080   0.20440   0.23510   0.01267  Uiso   1.00
P18    P     0.70800   0.00460   0.34340   0.01267  Uiso   1.00
H1     H     0.10280   0.49440   0.53860   0.01267  Uiso   1.00
H2     H     0.15570   0.55870   0.47270   0.01267  Uiso   1.00
H3     H     0.71620   0.84380   0.35190   0.01267  Uiso   1.00
H4     H     0.69470   0.77970   0.34960   0.01267  Uiso   1.00
H5     H     0.88930   0.72900   0.24910   0.01267  Uiso   1.00
H6     H     0.96700   0.76630   0.28160   0.01267  Uiso   1.00
H7     H     0.64140   0.53860   0.96700   0.01267  Uiso   1.00
H8     H     0.62840   0.47270   0.96860   0.01267  Uiso   1.00
H9     H     0.06810   0.35190   0.80430   0.01267  Uiso   1.00
H10    H     0.04430   0.34960   0.87070   0.01267  Uiso   1.00
H11    H     0.13840   0.24910   0.02190   0.01267  Uiso   1.00
H12    H     0.24860   0.28160   0.95210   0.01267  Uiso   1.00
H13    H     0.60840   0.96700   0.49440   0.01267  Uiso   1.00
H14    H     0.59700   0.96860   0.55870   0.01267  Uiso   1.00
H15    H     0.87240   0.80430   0.84380   0.01267  Uiso   1.00
H16    H     0.91500   0.87070   0.77970   0.01267  Uiso   1.00
H17    H     0.16030   0.02190   0.72900   0.01267  Uiso   1.00
H18    H     0.20070   0.95210   0.76630   0.01267  Uiso   1.00
H19    H     0.89720   0.50560   0.46140   0.01267  Uiso   1.00
H20    H     0.84430   0.44130   0.52730   0.01267  Uiso   1.00
H21    H     0.28380   0.15620   0.64810   0.01267  Uiso   1.00
H22    H     0.30530   0.22030   0.65040   0.01267  Uiso   1.00
H23    H     0.11070   0.27100   0.75090   0.01267  Uiso   1.00
H24    H     0.03300   0.23370   0.71840   0.01267  Uiso   1.00
H25    H     0.35860   0.46140   0.03300   0.01267  Uiso   1.00
H26    H     0.37160   0.52730   0.03140   0.01267  Uiso   1.00
H27    H     0.93190   0.64810   0.19570   0.01267  Uiso   1.00
H28    H     0.95570   0.65040   0.12930   0.01267  Uiso   1.00
H29    H     0.86160   0.75090   0.97810   0.01267  Uiso   1.00
H30    H     0.75140   0.71840   0.04790   0.01267  Uiso   1.00
H31    H     0.39160   0.03300   0.50560   0.01267  Uiso   1.00
H32    H     0.40300   0.03140   0.44130   0.01267  Uiso   1.00
H33    H     0.12760   0.19570   0.15620   0.01267  Uiso   1.00
H34    H     0.08500   0.12930   0.22030   0.01267  Uiso   1.00
H35    H     0.83970   0.97810   0.27100   0.01267  Uiso   1.00
H36    H     0.79930   0.04790   0.23370   0.01267  Uiso   1.00
C1     C     0.15040   0.53980   0.51860   0.01267  Uiso   1.00
C2     C     0.33250   0.54880   0.53240   0.01267  Uiso   1.00
C3     C     0.67740   0.79770   0.37750   0.01267  Uiso   1.00
C4     C     0.48400   0.78290   0.40620   0.01267  Uiso   1.00
C5     C     0.97780   0.73130   0.27330   0.01267  Uiso   1.00
C6     C     0.18420   0.74430   0.23020   0.01267  Uiso   1.00
C7     C     0.66900   0.51860   0.94160   0.01267  Uiso   1.00
C8     C     0.86490   0.53240   0.91880   0.01267  Uiso   1.00
C9     C     0.05490   0.37750   0.82480   0.01267  Uiso   1.00
C10    C     0.89020   0.40620   0.81090   0.01267  Uiso   1.00
C11    C     0.25110   0.27330   0.99540   0.01267  Uiso   1.00
C12    C     0.41440   0.23020   0.02550   0.01267  Uiso   1.00
C13    C     0.61060   0.94160   0.53980   0.01267  Uiso   1.00
C14    C     0.78370   0.91880   0.54880   0.01267  Uiso   1.00
C15    C     0.87970   0.82480   0.79770   0.01267  Uiso   1.00
C16    C     0.70110   0.81090   0.78290   0.01267  Uiso   1.00
C17    C     0.24650   0.99540   0.73130   0.01267  Uiso   1.00
C18    C     0.43990   0.02550   0.74430   0.01267  Uiso   1.00
C19    C     0.84960   0.46020   0.48140   0.01267  Uiso   1.00
C20    C     0.66750   0.45120   0.46760   0.01267  Uiso   1.00
C21    C     0.32260   0.20230   0.62250   0.01267  Uiso   1.00
C22    C     0.51600   0.21710   0.59380   0.01267  Uiso   1.00
C23    C     0.02220   0.26870   0.72670   0.01267  Uiso   1.00
C24    C     0.81580   0.25570   0.76980   0.01267  Uiso   1.00
C25    C     0.33100   0.48140   0.05840   0.01267  Uiso   1.00
C26    C     0.13510   0.46760   0.08120   0.01267  Uiso   1.00
C27    C     0.94510   0.62250   0.17520   0.01267  Uiso   1.00
C28    C     0.10980   0.59380   0.18910   0.01267  Uiso   1.00
C29    C     0.74890   0.72670   0.00460   0.01267  Uiso   1.00
C30    C     0.58560   0.76980   0.97450   0.01267  Uiso   1.00
C31    C     0.38940   0.05840   0.46020   0.01267  Uiso   1.00
C32    C     0.21630   0.08120   0.45120   0.01267  Uiso   1.00
C33    C     0.12030   0.17520   0.20230   0.01267  Uiso   1.00
C34    C     0.29890   0.18910   0.21710   0.01267  Uiso   1.00
C35    C     0.75350   0.00460   0.26870   0.01267  Uiso   1.00
C36    C     0.56010   0.97450   0.25570   0.01267  Uiso   1.00
O1     O     0.08890   0.64780   0.51770   0.01267  Uiso   1.00
O2     O     0.83060   0.56540   0.53550   0.01267  Uiso   1.00
O3     O     0.00190   0.54460   0.62120   0.01267  Uiso   1.00
O4     O     0.45300   0.58580   0.48360   0.01267  Uiso   1.00
O5     O     0.35090   0.52140   0.58900   0.01267  Uiso   1.00
O6     O     0.72440   0.69580   0.48590   0.01267  Uiso   1.00
O7     O     0.27760   0.47280   0.72310   0.01267  Uiso   1.00
O8     O     0.98690   0.77240   0.40740   0.01267  Uiso   1.00
O9     O     0.38700   0.74940   0.39220   0.01267  Uiso   1.00
O10    O     0.87810   0.44180   0.75360   0.01267  Uiso   1.00
O11    O     0.09950   0.66260   0.38100   0.01267  Uiso   1.00
O12    O     0.77310   0.65020   0.38630   0.01267  Uiso   1.00
O13    O     0.04080   0.39520   0.66830   0.01267  Uiso   1.00
O14    O     0.60660   0.51770   0.83450   0.01267  Uiso   1.00
O15    O     0.36610   0.53550   0.89910   0.01267  Uiso   1.00
O16    O     0.62310   0.62120   0.83420   0.01267  Uiso   1.00
O17    O     0.93660   0.48360   0.93060   0.01267  Uiso   1.00
O18    O     0.93990   0.58900   0.88960   0.01267  Uiso   1.00
O19    O     0.21030   0.48590   0.81830   0.01267  Uiso   1.00
O20    O     0.00070   0.72310   0.80410   0.01267  Uiso   1.00
O21    O     0.39430   0.40740   0.82020   0.01267  Uiso   1.00
O22    O     0.77920   0.39220   0.85840   0.01267  Uiso   1.00
O23    O     0.63170   0.75360   0.80460   0.01267  Uiso   1.00
O24    O     0.48050   0.38100   0.95640   0.01267  Uiso   1.00
O25    O     0.15940   0.38630   0.96350   0.01267  Uiso   1.00
O26    O     0.70910   0.66830   0.93650   0.01267  Uiso   1.00
O27    O     0.44110   0.83450   0.64780   0.01267  Uiso   1.00
O28    O     0.26520   0.89910   0.56540   0.01267  Uiso   1.00
O29    O     0.45730   0.83420   0.54460   0.01267  Uiso   1.00
O30    O     0.86720   0.93060   0.58580   0.01267  Uiso   1.00
O31    O     0.82950   0.88960   0.52140   0.01267  Uiso   1.00
O32    O     0.02860   0.81830   0.69580   0.01267  Uiso   1.00
O33    O     0.80480   0.80410   0.47280   0.01267  Uiso   1.00
O34    O     0.21450   0.82020   0.77240   0.01267  Uiso   1.00
O35    O     0.63760   0.85840   0.74940   0.01267  Uiso   1.00
O36    O     0.43630   0.80460   0.44180   0.01267  Uiso   1.00
O37    O     0.43690   0.95640   0.66260   0.01267  Uiso   1.00
O38    O     0.12290   0.96350   0.65020   0.01267  Uiso   1.00
O39    O     0.64560   0.93650   0.39520   0.01267  Uiso   1.00
O40    O     0.91110   0.35220   0.48230   0.01267  Uiso   1.00
O41    O     0.16940   0.43460   0.46450   0.01267  Uiso   1.00
O42    O     0.99810   0.45540   0.37880   0.01267  Uiso   1.00
O43    O     0.54700   0.41420   0.51640   0.01267  Uiso   1.00
O44    O     0.64910   0.47860   0.41100   0.01267  Uiso   1.00
O45    O     0.27560   0.30420   0.51410   0.01267  Uiso   1.00
O46    O     0.72240   0.52720   0.27690   0.01267  Uiso   1.00
O47    O     0.01310   0.22760   0.59260   0.01267  Uiso   1.00
O48    O     0.61300   0.25060   0.60780   0.01267  Uiso   1.00
O49    O     0.12190   0.55820   0.24640   0.01267  Uiso   1.00
O50    O     0.90050   0.33740   0.61900   0.01267  Uiso   1.00
O51    O     0.22690   0.34980   0.61370   0.01267  Uiso   1.00
O52    O     0.95920   0.60480   0.33170   0.01267  Uiso   1.00
O53    O     0.39340   0.48230   0.16550   0.01267  Uiso   1.00
O54    O     0.63390   0.46450   0.10090   0.01267  Uiso   1.00
O55    O     0.37690   0.37880   0.16580   0.01267  Uiso   1.00
O56    O     0.06340   0.51640   0.06940   0.01267  Uiso   1.00
O57    O     0.06010   0.41100   0.11040   0.01267  Uiso   1.00
O58    O     0.78970   0.51410   0.18170   0.01267  Uiso   1.00
O59    O     0.99930   0.27690   0.19590   0.01267  Uiso   1.00
O60    O     0.60570   0.59260   0.17980   0.01267  Uiso   1.00
O61    O     0.22080   0.60780   0.14160   0.01267  Uiso   1.00
O62    O     0.36830   0.24640   0.19540   0.01267  Uiso   1.00
O63    O     0.51950   0.61900   0.04360   0.01267  Uiso   1.00
O64    O     0.84060   0.61370   0.03650   0.01267  Uiso   1.00
O65    O     0.29090   0.33170   0.06350   0.01267  Uiso   1.00
O66    O     0.55890   0.16550   0.35220   0.01267  Uiso   1.00
O67    O     0.73480   0.10090   0.43460   0.01267  Uiso   1.00
O68    O     0.54270   0.16580   0.45540   0.01267  Uiso   1.00
O69    O     0.13280   0.06940   0.41420   0.01267  Uiso   1.00
O70    O     0.17050   0.11040   0.47860   0.01267  Uiso   1.00
O71    O     0.97140   0.18170   0.30420   0.01267  Uiso   1.00
O72    O     0.19520   0.19590   0.52720   0.01267  Uiso   1.00
O73    O     0.78550   0.17980   0.22760   0.01267  Uiso   1.00
O74    O     0.36240   0.14160   0.25060   0.01267  Uiso   1.00
O75    O     0.56370   0.19540   0.55820   0.01267  Uiso   1.00
O76    O     0.56310   0.04360   0.33740   0.01267  Uiso   1.00
O77    O     0.87710   0.03650   0.34980   0.01267  Uiso   1.00
O78    O     0.35440   0.06350   0.60480   0.01267  Uiso   1.00
H37    H     0.22550   0.00730   0.28680   0.01267  Uiso   1.00
H38    H     0.30930   0.01370   0.33460   0.01267  Uiso   1.00
H39    H     0.12610   0.01810   0.33390   0.01267  Uiso   1.00
H40    H     0.04060   0.91590   0.37270   0.01267  Uiso   1.00
H41    H     0.23300   0.90800   0.35550   0.01267  Uiso   1.00
H42    H     0.15210   0.84410   0.51780   0.01267  Uiso   1.00
H43    H     0.21820   0.82670   0.47100   0.01267  Uiso   1.00
H44    H     0.03600   0.83220   0.48040   0.01267  Uiso   1.00
H45    H     0.12420   0.94620   0.43900   0.01267  Uiso   1.00
H46    H     0.31500   0.93760   0.42230   0.01267  Uiso   1.00
C37    C     0.16270   0.93070   0.37010   0.01267  Uiso   1.00
C38    C     0.19280   0.92190   0.42610   0.01267  Uiso   1.00
N1     N     0.21040   0.99890   0.32730   0.01267  Uiso   1.00
N2     N     0.14450   0.84810   0.47980   0.01267  Uiso   1.00
H47    H     0.51230   0.28680   0.70590   0.01267  Uiso   1.00
H48    H     0.64390   0.33460   0.65170   0.01267  Uiso   1.00
H49    H     0.46000   0.33390   0.64800   0.01267  Uiso   1.00
H50    H     0.41330   0.37270   0.71140   0.01267  Uiso   1.00
H51    H     0.58850   0.35550   0.73650   0.01267  Uiso   1.00
H52    H     0.66990   0.51780   0.63810   0.01267  Uiso   1.00
H53    H     0.68920   0.47100   0.70230   0.01267  Uiso   1.00
H54    H     0.51640   0.48040   0.68740   0.01267  Uiso   1.00
H55    H     0.56320   0.43900   0.61480   0.01267  Uiso   1.00
H56    H     0.73730   0.42230   0.64010   0.01267  Uiso   1.00
C39    C     0.53280   0.37010   0.69920   0.01267  Uiso   1.00
C40    C     0.61890   0.42610   0.65200   0.01267  Uiso   1.00
N3     N     0.53770   0.32730   0.67380   0.01267  Uiso   1.00
N4     N     0.62430   0.47980   0.67210   0.01267  Uiso   1.00
H57    H     0.21820   0.70590   0.00730   0.01267  Uiso   1.00
H58    H     0.29560   0.65170   0.01370   0.01267  Uiso   1.00
H59    H     0.10800   0.64800   0.01810   0.01267  Uiso   1.00
H60    H     0.12470   0.71140   0.91590   0.01267  Uiso   1.00
H61    H     0.32500   0.73650   0.90800   0.01267  Uiso   1.00
H62    H     0.30800   0.63810   0.84410   0.01267  Uiso   1.00
H63    H     0.39150   0.70230   0.82670   0.01267  Uiso   1.00
H64    H     0.20380   0.68740   0.83220   0.01267  Uiso   1.00
H65    H     0.17800   0.61480   0.94620   0.01267  Uiso   1.00
H66    H     0.37740   0.64010   0.93760   0.01267  Uiso   1.00
C41    C     0.23200   0.69920   0.93070   0.01267  Uiso   1.00
C42    C     0.27090   0.65200   0.92190   0.01267  Uiso   1.00
N5     N     0.21150   0.67380   0.99890   0.01267  Uiso   1.00
N6     N     0.29640   0.67210   0.84810   0.01267  Uiso   1.00
H67    H     0.77450   0.99270   0.71320   0.01267  Uiso   1.00
H68    H     0.69070   0.98630   0.66540   0.01267  Uiso   1.00
H69    H     0.87390   0.98190   0.66610   0.01267  Uiso   1.00
H70    H     0.95940   0.08410   0.62730   0.01267  Uiso   1.00
H71    H     0.76700   0.09200   0.64450   0.01267  Uiso   1.00
H72    H     0.84790   0.15590   0.48220   0.01267  Uiso   1.00
H73    H     0.78180   0.17330   0.52900   0.01267  Uiso   1.00
H74    H     0.96400   0.16780   0.51960   0.01267  Uiso   1.00
H75    H     0.87580   0.05380   0.56100   0.01267  Uiso   1.00
H76    H     0.68500   0.06240   0.57770   0.01267  Uiso   1.00
C43    C     0.83730   0.06930   0.62990   0.01267  Uiso   1.00
C44    C     0.80720   0.07810   0.57390   0.01267  Uiso   1.00
N7     N     0.78960   0.00110   0.67270   0.01267  Uiso   1.00
N8     N     0.85550   0.15190   0.52020   0.01267  Uiso   1.00
H77    H     0.48770   0.71320   0.29410   0.01267  Uiso   1.00
H78    H     0.35610   0.66540   0.34830   0.01267  Uiso   1.00
H79    H     0.54000   0.66610   0.35200   0.01267  Uiso   1.00
H80    H     0.58670   0.62730   0.28860   0.01267  Uiso   1.00
H81    H     0.41150   0.64450   0.26350   0.01267  Uiso   1.00
H82    H     0.33010   0.48220   0.36190   0.01267  Uiso   1.00
H83    H     0.31080   0.52900   0.29770   0.01267  Uiso   1.00
H84    H     0.48360   0.51960   0.31260   0.01267  Uiso   1.00
H85    H     0.43680   0.56100   0.38520   0.01267  Uiso   1.00
H86    H     0.26270   0.57770   0.35990   0.01267  Uiso   1.00
C45    C     0.46720   0.62990   0.30080   0.01267  Uiso   1.00
C46    C     0.38110   0.57390   0.34800   0.01267  Uiso   1.00
N9     N     0.46230   0.67270   0.32620   0.01267  Uiso   1.00
N10    N     0.37570   0.52020   0.32790   0.01267  Uiso   1.00
H87    H     0.78180   0.29410   0.99270   0.01267  Uiso   1.00
H88    H     0.70440   0.34830   0.98630   0.01267  Uiso   1.00
H89    H     0.89200   0.35200   0.98190   0.01267  Uiso   1.00
H90    H     0.87530   0.28860   0.08410   0.01267  Uiso   1.00
H91    H     0.67500   0.26350   0.09200   0.01267  Uiso   1.00
H92    H     0.69200   0.36190   0.15590   0.01267  Uiso   1.00
H93    H     0.60850   0.29770   0.17330   0.01267  Uiso   1.00
H94    H     0.79620   0.31260   0.16780   0.01267  Uiso   1.00
H95    H     0.82200   0.38520   0.05380   0.01267  Uiso   1.00
H96    H     0.62260   0.35990   0.06240   0.01267  Uiso   1.00
C47    C     0.76800   0.30080   0.06930   0.01267  Uiso   1.00
C48    C     0.72910   0.34800   0.07810   0.01267  Uiso   1.00
N11    N     0.78850   0.32620   0.00110   0.01267  Uiso   1.00
N12    N     0.70360   0.32790   0.15190   0.01267  Uiso   1.00
