data_BIVXEK_clean
_audit_creation_date              2014-07-02
_audit_creation_method            'Materials Studio'
_symmetry_space_group_name_H-M    'P1'
_symmetry_Int_Tables_number       1
_symmetry_cell_setting            triclinic
loop_
_symmetry_equiv_pos_as_xyz
  x,y,z
_cell_length_a                    6.7160
_cell_length_b                    11.9270
_cell_length_c                    13.1370
_cell_angle_alpha                 82.9110
_cell_angle_beta                  83.6960
_cell_angle_gamma                 87.9020
loop_
_atom_site_label
_atom_site_type_symbol
_atom_site_fract_x
_atom_site_fract_y
_atom_site_fract_z
_atom_site_U_iso_or_equiv
_atom_site_adp_type
_atom_site_occupancy
Co1    Co    0.22190   0.34631   0.33128   0.01267  Uiso   1.00
Co2    Co    0.77810   0.65369   0.66872   0.01267  Uiso   1.00
Co3    Co    0.50000   0.50000   0.50000   0.01267  Uiso   1.00
H1     H     0.02600   0.52660   0.28100   0.01267  Uiso   1.00
H2     H     0.29700   0.45680   0.10580   0.01267  Uiso   1.00
H3     H     0.82860   0.09260   0.47790   0.01267  Uiso   1.00
H4     H     0.44170   0.77940   0.78390   0.01267  Uiso   1.00
H5     H     0.94810   0.21040   0.22380   0.01267  Uiso   1.00
H6     H     0.84370   0.19120   0.06380   0.01267  Uiso   1.00
H7     H     0.27650   0.94960   0.78480   0.01267  Uiso   1.00
H8     H     0.00070   0.30200   0.91800   0.01267  Uiso   1.00
H9     H     0.81940   0.89500   0.55350   0.01267  Uiso   1.00
H10    H     0.40070   0.10440   0.67380   0.01267  Uiso   1.00
H11    H     0.60140   0.24040   0.57930   0.01267  Uiso   1.00
H12    H     0.24630   0.36590   0.80090   0.01267  Uiso   1.00
H13    H     0.33790   0.52200   0.91470   0.01267  Uiso   1.00
H14    H     0.97400   0.47340   0.71900   0.01267  Uiso   1.00
H15    H     0.70300   0.54320   0.89420   0.01267  Uiso   1.00
H16    H     0.17140   0.90740   0.52210   0.01267  Uiso   1.00
H17    H     0.55830   0.22060   0.21610   0.01267  Uiso   1.00
H18    H     0.05190   0.78960   0.77620   0.01267  Uiso   1.00
H19    H     0.15630   0.80880   0.93620   0.01267  Uiso   1.00
H20    H     0.72350   0.05040   0.21520   0.01267  Uiso   1.00
H21    H     0.99930   0.69800   0.08200   0.01267  Uiso   1.00
H22    H     0.18060   0.10500   0.44650   0.01267  Uiso   1.00
H23    H     0.59930   0.89560   0.32620   0.01267  Uiso   1.00
H24    H     0.39860   0.75960   0.42070   0.01267  Uiso   1.00
H25    H     0.75370   0.63410   0.19910   0.01267  Uiso   1.00
H26    H     0.66210   0.47800   0.08530   0.01267  Uiso   1.00
C1     C     0.21030   0.40090   0.09630   0.01267  Uiso   1.00
C2     C     0.45120   0.48870   0.73110   0.01267  Uiso   1.00
C3     C     0.73270   0.11290   0.52940   0.01267  Uiso   1.00
C4     C     0.48740   0.83920   0.73570   0.01267  Uiso   1.00
C5     C     0.99990   0.25780   0.16610   0.01267  Uiso   1.00
C6     C     0.17340   0.38870   0.99760   0.01267  Uiso   1.00
C7     C     0.94000   0.24310   0.07010   0.01267  Uiso   1.00
C8     C     0.81490   0.30180   0.46000   0.01267  Uiso   1.00
C9     C     0.39000   0.94180   0.73860   0.01267  Uiso   1.00
C10    C     0.03300   0.31000   0.98380   0.01267  Uiso   1.00
C11    C     0.71200   0.90800   0.60200   0.01267  Uiso   1.00
C12    C     0.46200   0.03330   0.67230   0.01267  Uiso   1.00
C13    C     0.70080   0.21640   0.53120   0.01267  Uiso   1.00
C14    C     0.63370   0.01560   0.60130   0.01267  Uiso   1.00
C15    C     0.31390   0.42760   0.81590   0.01267  Uiso   1.00
C16    C     0.28480   0.45390   0.90440   0.01267  Uiso   1.00
C17    C     0.78970   0.59910   0.90370   0.01267  Uiso   1.00
C18    C     0.54880   0.51130   0.26890   0.01267  Uiso   1.00
C19    C     0.26730   0.88710   0.47060   0.01267  Uiso   1.00
C20    C     0.51260   0.16080   0.26430   0.01267  Uiso   1.00
C21    C     0.00010   0.74220   0.83390   0.01267  Uiso   1.00
C22    C     0.82660   0.61130   0.00240   0.01267  Uiso   1.00
C23    C     0.06000   0.75690   0.92990   0.01267  Uiso   1.00
C24    C     0.18510   0.69820   0.54000   0.01267  Uiso   1.00
C25    C     0.61000   0.05820   0.26140   0.01267  Uiso   1.00
C26    C     0.96700   0.69000   0.01620   0.01267  Uiso   1.00
C27    C     0.28800   0.09200   0.39800   0.01267  Uiso   1.00
C28    C     0.53800   0.96670   0.32770   0.01267  Uiso   1.00
C29    C     0.29920   0.78360   0.46880   0.01267  Uiso   1.00
C30    C     0.36630   0.98440   0.39870   0.01267  Uiso   1.00
C31    C     0.68610   0.57240   0.18410   0.01267  Uiso   1.00
C32    C     0.71520   0.54610   0.09560   0.01267  Uiso   1.00
N1     N     0.12820   0.33680   0.17870   0.01267  Uiso   1.00
N2     N     0.64280   0.82020   0.66850   0.01267  Uiso   1.00
N3     N     0.30700   0.36540   0.48020   0.01267  Uiso   1.00
N4     N     0.22570   0.30950   0.55450   0.01267  Uiso   1.00
N5     N     0.14600   0.25850   0.62650   0.01267  Uiso   1.00
N6     N     0.87180   0.66320   0.82130   0.01267  Uiso   1.00
N7     N     0.35720   0.17980   0.33150   0.01267  Uiso   1.00
N8     N     0.69300   0.63460   0.51980   0.01267  Uiso   1.00
N9     N     0.77430   0.69050   0.44550   0.01267  Uiso   1.00
N10    N     0.85400   0.74150   0.37350   0.01267  Uiso   1.00
O1     O     0.95440   0.26890   0.39840   0.01267  Uiso   1.00
O2     O     0.76910   0.40540   0.46300   0.01267  Uiso   1.00
O3     O     0.49210   0.43810   0.65150   0.01267  Uiso   1.00
O4     O     0.51730   0.58010   0.74490   0.01267  Uiso   1.00
O5     O     0.07600   0.50850   0.33500   0.01267  Uiso   1.00
O6     O     0.04560   0.73110   0.60160   0.01267  Uiso   1.00
O7     O     0.23090   0.59460   0.53700   0.01267  Uiso   1.00
O8     O     0.50790   0.56190   0.34850   0.01267  Uiso   1.00
O9     O     0.48270   0.41990   0.25510   0.01267  Uiso   1.00
O10    O     0.92400   0.49150   0.66500   0.01267  Uiso   1.00
