data_BOLPEY_clean
_audit_creation_date              2014-07-02
_audit_creation_method            'Materials Studio'
_symmetry_space_group_name_H-M    'P1'
_symmetry_Int_Tables_number       1
_symmetry_cell_setting            triclinic
loop_
_symmetry_equiv_pos_as_xyz
  x,y,z
_cell_length_a                    14.5970
_cell_length_b                    17.6689
_cell_length_c                    19.0829
_cell_angle_alpha                 75.1017
_cell_angle_beta                  67.5137
_cell_angle_gamma                 65.6022
loop_
_atom_site_label
_atom_site_type_symbol
_atom_site_fract_x
_atom_site_fract_y
_atom_site_fract_z
_atom_site_U_iso_or_equiv
_atom_site_adp_type
_atom_site_occupancy
Zn1    Zn    0.11136   0.97060   0.01184   0.01267  Uiso   1.00
Zn2    Zn    0.02739   0.81978   0.06816   0.01267  Uiso   1.00
Zn3    Zn    0.09380   0.52940   0.48816   0.01267  Uiso   1.00
Zn4    Zn    0.91533   0.68022   0.43184   0.01267  Uiso   1.00
Zn5    Zn    0.88864   0.02940   0.98816   0.01267  Uiso   1.00
Zn6    Zn    0.97261   0.18022   0.93184   0.01267  Uiso   1.00
Zn7    Zn    0.90620   0.47060   0.51184   0.01267  Uiso   1.00
Zn8    Zn    0.08467   0.31978   0.56816   0.01267  Uiso   1.00
Si1    Si    0.70562   0.53305   0.00305   0.01267  Uiso   1.00
Si2    Si    0.24172   0.96695   0.49695   0.01267  Uiso   1.00
Si3    Si    0.29438   0.46695   0.99695   0.01267  Uiso   1.00
Si4    Si    0.75828   0.03305   0.50305   0.01267  Uiso   1.00
H1     H     0.04790   0.89910   0.94710   0.01267  Uiso   1.00
H2     H     0.60610   0.71010   0.95650   0.01267  Uiso   1.00
H3     H     0.43660   0.80550   0.96750   0.01267  Uiso   1.00
H4     H     0.31840   0.62110   0.08130   0.01267  Uiso   1.00
H5     H     0.48970   0.52740   0.07240   0.01267  Uiso   1.00
H6     H     0.66000   0.59010   0.85570   0.01267  Uiso   1.00
H7     H     0.73820   0.54680   0.73440   0.01267  Uiso   1.00
H8     H     0.96650   0.35340   0.80840   0.01267  Uiso   1.00
H9     H     0.88740   0.39760   0.92780   0.01267  Uiso   1.00
H10    H     0.90620   0.56480   0.90900   0.01267  Uiso   1.00
H11    H     0.00040   0.63710   0.92230   0.01267  Uiso   1.00
H12    H     0.77870   0.70140   0.12540   0.01267  Uiso   1.00
H13    H     0.68450   0.62910   0.11210   0.01267  Uiso   1.00
H14    H     0.66710   0.41100   0.07000   0.01267  Uiso   1.00
H15    H     0.78100   0.40200   0.06960   0.01267  Uiso   1.00
H16    H     0.67570   0.45810   0.12730   0.01267  Uiso   1.00
H17    H     0.89410   0.60090   0.55290   0.01267  Uiso   1.00
H18    H     0.27270   0.78990   0.54350   0.01267  Uiso   1.00
H19    H     0.20960   0.69450   0.53250   0.01267  Uiso   1.00
H20    H     0.02080   0.87890   0.41870   0.01267  Uiso   1.00
H21    H     0.08950   0.97260   0.42760   0.01267  Uiso   1.00
H22    H     0.10580   0.90990   0.64430   0.01267  Uiso   1.00
H23    H     0.01940   0.95320   0.76560   0.01267  Uiso   1.00
H24    H     0.12830   0.14660   0.69160   0.01267  Uiso   1.00
H25    H     0.21280   0.10240   0.57220   0.01267  Uiso   1.00
H26    H     0.38000   0.93520   0.59100   0.01267  Uiso   1.00
H27    H     0.55980   0.86290   0.57770   0.01267  Uiso   1.00
H28    H     0.60550   0.79860   0.37460   0.01267  Uiso   1.00
H29    H     0.42570   0.87090   0.38790   0.01267  Uiso   1.00
H30    H     0.14810   0.08900   0.43000   0.01267  Uiso   1.00
H31    H     0.25260   0.09800   0.43040   0.01267  Uiso   1.00
H32    H     0.26110   0.04190   0.37270   0.01267  Uiso   1.00
H33    H     0.95210   0.10090   0.05290   0.01267  Uiso   1.00
H34    H     0.39390   0.28990   0.04350   0.01267  Uiso   1.00
H35    H     0.56340   0.19450   0.03250   0.01267  Uiso   1.00
H36    H     0.68160   0.37890   0.91870   0.01267  Uiso   1.00
H37    H     0.51030   0.47260   0.92760   0.01267  Uiso   1.00
H38    H     0.34000   0.40990   0.14430   0.01267  Uiso   1.00
H39    H     0.26180   0.45320   0.26560   0.01267  Uiso   1.00
H40    H     0.03350   0.64660   0.19160   0.01267  Uiso   1.00
H41    H     0.11260   0.60240   0.07220   0.01267  Uiso   1.00
H42    H     0.09380   0.43520   0.09100   0.01267  Uiso   1.00
H43    H     0.99960   0.36290   0.07770   0.01267  Uiso   1.00
H44    H     0.22130   0.29860   0.87460   0.01267  Uiso   1.00
H45    H     0.31550   0.37090   0.88790   0.01267  Uiso   1.00
H46    H     0.33290   0.58900   0.93000   0.01267  Uiso   1.00
H47    H     0.21900   0.59800   0.93040   0.01267  Uiso   1.00
H48    H     0.32430   0.54190   0.87270   0.01267  Uiso   1.00
H49    H     0.10590   0.39910   0.44710   0.01267  Uiso   1.00
H50    H     0.72730   0.21010   0.45650   0.01267  Uiso   1.00
H51    H     0.79040   0.30550   0.46750   0.01267  Uiso   1.00
H52    H     0.97920   0.12110   0.58130   0.01267  Uiso   1.00
H53    H     0.91050   0.02740   0.57240   0.01267  Uiso   1.00
H54    H     0.89420   0.09010   0.35570   0.01267  Uiso   1.00
H55    H     0.98060   0.04680   0.23440   0.01267  Uiso   1.00
H56    H     0.87170   0.85340   0.30840   0.01267  Uiso   1.00
H57    H     0.78720   0.89760   0.42780   0.01267  Uiso   1.00
H58    H     0.62000   0.06480   0.40900   0.01267  Uiso   1.00
H59    H     0.44020   0.13710   0.42230   0.01267  Uiso   1.00
H60    H     0.39450   0.20140   0.62540   0.01267  Uiso   1.00
H61    H     0.57430   0.12910   0.61210   0.01267  Uiso   1.00
H62    H     0.85190   0.91100   0.57000   0.01267  Uiso   1.00
H63    H     0.74740   0.90200   0.56960   0.01267  Uiso   1.00
H64    H     0.73890   0.95810   0.62730   0.01267  Uiso   1.00
C1     C     0.56627   0.60801   0.01445   0.01267  Uiso   1.00
C2     C     0.54748   0.69202   0.98282   0.01267  Uiso   1.00
C3     C     0.44696   0.74884   0.98864   0.01267  Uiso   1.00
C4     C     0.35960   0.72249   0.02611   0.01267  Uiso   1.00
C5     C     0.37677   0.63983   0.05643   0.01267  Uiso   1.00
C6     C     0.47940   0.58390   0.05070   0.01267  Uiso   1.00
C7     C     0.24961   0.78419   0.03199   0.01267  Uiso   1.00
C8     C     0.76703   0.49955   0.90519   0.01267  Uiso   1.00
C9     C     0.72320   0.54230   0.84590   0.01267  Uiso   1.00
C10    C     0.76966   0.51674   0.77334   0.01267  Uiso   1.00
C11    C     0.86205   0.44722   0.75788   0.01267  Uiso   1.00
C12    C     0.90464   0.40236   0.81736   0.01267  Uiso   1.00
C13    C     0.85720   0.42890   0.88850   0.01267  Uiso   1.00
C14    C     0.91384   0.42036   0.67916   0.01267  Uiso   1.00
C15    C     0.78650   0.59010   0.00930   0.01267  Uiso   1.00
C16    C     0.88040   0.59250   0.95290   0.01267  Uiso   1.00
C17    C     0.93630   0.63550   0.96090   0.01267  Uiso   1.00
C18    C     0.89840   0.67610   0.02510   0.01267  Uiso   1.00
C19    C     0.80460   0.67370   0.08150   0.01267  Uiso   1.00
C20    C     0.74870   0.63070   0.07350   0.01267  Uiso   1.00
C21    C     0.96220   0.72950   0.02550   0.01267  Uiso   1.00
C22    C     0.70760   0.44010   0.07610   0.01267  Uiso   1.00
C23    C     0.18873   0.89199   0.48555   0.01267  Uiso   1.00
C24    C     0.22232   0.80798   0.51718   0.01267  Uiso   1.00
C25    C     0.18444   0.75116   0.51136   0.01267  Uiso   1.00
C26    C     0.10820   0.77751   0.47389   0.01267  Uiso   1.00
C27    C     0.07303   0.86017   0.44357   0.01267  Uiso   1.00
C28    C     0.11400   0.91610   0.44930   0.01267  Uiso   1.00
C29    C     0.06579   0.71581   0.46801   0.01267  Uiso   1.00
C30    C     0.17177   0.00045   0.59481   0.01267  Uiso   1.00
C31    C     0.11140   0.95770   0.65410   0.01267  Uiso   1.00
C32    C     0.05974   0.98326   0.72666   0.01267  Uiso   1.00
C33    C     0.06715   0.05278   0.74212   0.01267  Uiso   1.00
C34    C     0.12436   0.09764   0.68264   0.01267  Uiso   1.00
C35    C     0.17460   0.07110   0.61150   0.01267  Uiso   1.00
C36    C     0.01336   0.07964   0.82084   0.01267  Uiso   1.00
C37    C     0.38590   0.90990   0.49070   0.01267  Uiso   1.00
C38    C     0.42580   0.90750   0.54710   0.01267  Uiso   1.00
C39    C     0.53270   0.86450   0.53910   0.01267  Uiso   1.00
C40    C     0.59960   0.82390   0.47490   0.01267  Uiso   1.00
C41    C     0.55980   0.82630   0.41850   0.01267  Uiso   1.00
C42    C     0.45290   0.86930   0.42650   0.01267  Uiso   1.00
C43    C     0.71720   0.77050   0.47450   0.01267  Uiso   1.00
C44    C     0.22380   0.05990   0.42390   0.01267  Uiso   1.00
C45    C     0.43373   0.39199   0.98555   0.01267  Uiso   1.00
C46    C     0.45252   0.30798   0.01718   0.01267  Uiso   1.00
C47    C     0.55304   0.25116   0.01136   0.01267  Uiso   1.00
C48    C     0.64040   0.27751   0.97389   0.01267  Uiso   1.00
C49    C     0.62323   0.36017   0.94357   0.01267  Uiso   1.00
C50    C     0.52060   0.41610   0.94930   0.01267  Uiso   1.00
C51    C     0.75039   0.21581   0.96801   0.01267  Uiso   1.00
C52    C     0.23297   0.50045   0.09481   0.01267  Uiso   1.00
C53    C     0.27680   0.45770   0.15410   0.01267  Uiso   1.00
C54    C     0.23034   0.48326   0.22666   0.01267  Uiso   1.00
C55    C     0.13795   0.55278   0.24212   0.01267  Uiso   1.00
C56    C     0.09536   0.59764   0.18264   0.01267  Uiso   1.00
C57    C     0.14280   0.57110   0.11150   0.01267  Uiso   1.00
C58    C     0.08616   0.57964   0.32084   0.01267  Uiso   1.00
C59    C     0.21350   0.40990   0.99070   0.01267  Uiso   1.00
C60    C     0.11960   0.40750   0.04710   0.01267  Uiso   1.00
C61    C     0.06370   0.36450   0.03910   0.01267  Uiso   1.00
C62    C     0.10160   0.32390   0.97490   0.01267  Uiso   1.00
C63    C     0.19540   0.32630   0.91850   0.01267  Uiso   1.00
C64    C     0.25130   0.36930   0.92650   0.01267  Uiso   1.00
C65    C     0.03780   0.27050   0.97450   0.01267  Uiso   1.00
C66    C     0.29240   0.55990   0.92390   0.01267  Uiso   1.00
C67    C     0.81127   0.10801   0.51445   0.01267  Uiso   1.00
C68    C     0.77768   0.19202   0.48282   0.01267  Uiso   1.00
C69    C     0.81556   0.24884   0.48864   0.01267  Uiso   1.00
C70    C     0.89180   0.22249   0.52611   0.01267  Uiso   1.00
C71    C     0.92697   0.13983   0.55643   0.01267  Uiso   1.00
C72    C     0.88600   0.08390   0.55070   0.01267  Uiso   1.00
C73    C     0.93421   0.28419   0.53199   0.01267  Uiso   1.00
C74    C     0.82823   0.99955   0.40519   0.01267  Uiso   1.00
C75    C     0.88860   0.04230   0.34590   0.01267  Uiso   1.00
C76    C     0.94026   0.01674   0.27334   0.01267  Uiso   1.00
C77    C     0.93285   0.94722   0.25788   0.01267  Uiso   1.00
C78    C     0.87564   0.90236   0.31736   0.01267  Uiso   1.00
C79    C     0.82540   0.92890   0.38850   0.01267  Uiso   1.00
C80    C     0.98664   0.92036   0.17916   0.01267  Uiso   1.00
C81    C     0.61410   0.09010   0.50930   0.01267  Uiso   1.00
C82    C     0.57420   0.09250   0.45290   0.01267  Uiso   1.00
C83    C     0.46730   0.13550   0.46090   0.01267  Uiso   1.00
C84    C     0.40040   0.17610   0.52510   0.01267  Uiso   1.00
C85    C     0.44020   0.17370   0.58150   0.01267  Uiso   1.00
C86    C     0.54710   0.13070   0.57350   0.01267  Uiso   1.00
C87    C     0.28280   0.22950   0.52550   0.01267  Uiso   1.00
C88    C     0.77620   0.94010   0.57610   0.01267  Uiso   1.00
O1     O     0.01877   0.91872   0.99254   0.01267  Uiso   1.00
O2     O     0.23739   0.86006   0.01656   0.01267  Uiso   1.00
O3     O     0.17805   0.75337   0.05399   0.01267  Uiso   1.00
O4     O     0.86892   0.46068   0.62948   0.01267  Uiso   1.00
O5     O     0.00069   0.35875   0.66927   0.01267  Uiso   1.00
O6     O     0.03600   0.73620   0.96980   0.01267  Uiso   1.00
O7     O     0.93277   0.75903   0.08463   0.01267  Uiso   1.00
O8     O     0.93003   0.58128   0.50746   0.01267  Uiso   1.00
O9     O     0.11401   0.63994   0.48344   0.01267  Uiso   1.00
O10    O     0.98541   0.74663   0.44601   0.01267  Uiso   1.00
O11    O     0.95908   0.03932   0.87052   0.01267  Uiso   1.00
O12    O     0.02871   0.14125   0.83073   0.01267  Uiso   1.00
O13    O     0.74200   0.76380   0.53020   0.01267  Uiso   1.00
O14    O     0.77643   0.74097   0.41537   0.01267  Uiso   1.00
O15    O     0.98123   0.08128   0.00746   0.01267  Uiso   1.00
O16    O     0.76261   0.13994   0.98344   0.01267  Uiso   1.00
O17    O     0.82195   0.24663   0.94601   0.01267  Uiso   1.00
O18    O     0.13108   0.53932   0.37052   0.01267  Uiso   1.00
O19    O     0.99931   0.64125   0.33073   0.01267  Uiso   1.00
O20    O     0.96400   0.26380   0.03020   0.01267  Uiso   1.00
O21    O     0.06723   0.24097   0.91537   0.01267  Uiso   1.00
O22    O     0.06997   0.41872   0.49254   0.01267  Uiso   1.00
O23    O     0.88599   0.36006   0.51656   0.01267  Uiso   1.00
O24    O     0.01459   0.25337   0.55399   0.01267  Uiso   1.00
O25    O     0.04092   0.96068   0.12948   0.01267  Uiso   1.00
O26    O     0.97129   0.85875   0.16927   0.01267  Uiso   1.00
O27    O     0.25800   0.23620   0.46980   0.01267  Uiso   1.00
O28    O     0.22357   0.25903   0.58463   0.01267  Uiso   1.00
