data_BONMEX_clean
_audit_creation_date              2014-07-02
_audit_creation_method            'Materials Studio'
_symmetry_space_group_name_H-M    'P1'
_symmetry_Int_Tables_number       1
_symmetry_cell_setting            triclinic
loop_
_symmetry_equiv_pos_as_xyz
  x,y,z
_cell_length_a                    14.2480
_cell_length_b                    15.2255
_cell_length_c                    18.1250
_cell_angle_alpha                 85.0698
_cell_angle_beta                  79.4160
_cell_angle_gamma                 62.1020
loop_
_atom_site_label
_atom_site_type_symbol
_atom_site_fract_x
_atom_site_fract_y
_atom_site_fract_z
_atom_site_U_iso_or_equiv
_atom_site_adp_type
_atom_site_occupancy
Ni1    Ni    0.23140   0.78708   0.22649   0.01267  Uiso   1.00
Ni2    Ni    0.98152   0.78708   0.27351   0.01267  Uiso   1.00
Ni3    Ni    0.76860   0.21292   0.77351   0.01267  Uiso   1.00
Ni4    Ni    0.01848   0.21292   0.72649   0.01267  Uiso   1.00
H1     H     0.14220   0.98160   0.05440   0.01267  Uiso   1.00
H2     H     0.64000   0.53720   0.96050   0.01267  Uiso   1.00
H3     H     0.11010   0.06660   0.94190   0.01267  Uiso   1.00
H4     H     0.37080   0.83800   0.09260   0.01267  Uiso   1.00
H5     H     0.49300   0.05340   0.11700   0.01267  Uiso   1.00
H6     H     0.49170   0.64380   0.04080   0.01267  Uiso   1.00
H7     H     0.29370   0.67620   0.38190   0.01267  Uiso   1.00
H8     H     0.62700   0.52160   0.41350   0.01267  Uiso   1.00
H9     H     0.66670   0.45460   0.53080   0.01267  Uiso   1.00
H10    H     0.58270   0.09480   0.01100   0.01267  Uiso   1.00
H11    H     0.37070   0.04300   0.21310   0.01267  Uiso   1.00
H12    H     0.49110   0.62800   0.19230   0.01267  Uiso   1.00
H13    H     0.27720   0.95800   0.29090   0.01267  Uiso   1.00
H14    H     0.59550   0.51840   0.28570   0.01267  Uiso   1.00
H15    H     0.87620   0.98160   0.44560   0.01267  Uiso   1.00
H16    H     0.82280   0.53720   0.53950   0.01267  Uiso   1.00
H17    H     0.82330   0.06660   0.55810   0.01267  Uiso   1.00
H18    H     0.79120   0.83800   0.40740   0.01267  Uiso   1.00
H19    H     0.45360   0.05340   0.38300   0.01267  Uiso   1.00
H20    H     0.86450   0.64380   0.45920   0.01267  Uiso   1.00
H21    H     0.03010   0.67620   0.11810   0.01267  Uiso   1.00
H22    H     0.85140   0.52160   0.08650   0.01267  Uiso   1.00
H23    H     0.87870   0.45460   0.96920   0.01267  Uiso   1.00
H24    H     0.32250   0.09480   0.48900   0.01267  Uiso   1.00
H25    H     0.58630   0.04300   0.28690   0.01267  Uiso   1.00
H26    H     0.88090   0.62800   0.30770   0.01267  Uiso   1.00
H27    H     0.76480   0.95800   0.20910   0.01267  Uiso   1.00
H28    H     0.88610   0.51840   0.21430   0.01267  Uiso   1.00
H29    H     0.85780   0.01840   0.94560   0.01267  Uiso   1.00
H30    H     0.36000   0.46280   0.03950   0.01267  Uiso   1.00
H31    H     0.88990   0.93340   0.05810   0.01267  Uiso   1.00
H32    H     0.62920   0.16200   0.90740   0.01267  Uiso   1.00
H33    H     0.50700   0.94660   0.88300   0.01267  Uiso   1.00
H34    H     0.50830   0.35620   0.95920   0.01267  Uiso   1.00
H35    H     0.70630   0.32380   0.61810   0.01267  Uiso   1.00
H36    H     0.37300   0.47840   0.58650   0.01267  Uiso   1.00
H37    H     0.33330   0.54540   0.46920   0.01267  Uiso   1.00
H38    H     0.41730   0.90520   0.98900   0.01267  Uiso   1.00
H39    H     0.62930   0.95700   0.78690   0.01267  Uiso   1.00
H40    H     0.50890   0.37200   0.80770   0.01267  Uiso   1.00
H41    H     0.72280   0.04200   0.70910   0.01267  Uiso   1.00
H42    H     0.40450   0.48160   0.71430   0.01267  Uiso   1.00
H43    H     0.12380   0.01840   0.55440   0.01267  Uiso   1.00
H44    H     0.17720   0.46280   0.46050   0.01267  Uiso   1.00
H45    H     0.17670   0.93340   0.44190   0.01267  Uiso   1.00
H46    H     0.20880   0.16200   0.59260   0.01267  Uiso   1.00
H47    H     0.54640   0.94660   0.61700   0.01267  Uiso   1.00
H48    H     0.13550   0.35620   0.54080   0.01267  Uiso   1.00
H49    H     0.96990   0.32380   0.88190   0.01267  Uiso   1.00
H50    H     0.14860   0.47840   0.91350   0.01267  Uiso   1.00
H51    H     0.12130   0.54540   0.03080   0.01267  Uiso   1.00
H52    H     0.67750   0.90520   0.51100   0.01267  Uiso   1.00
H53    H     0.41370   0.95700   0.71310   0.01267  Uiso   1.00
H54    H     0.11910   0.37200   0.69230   0.01267  Uiso   1.00
H55    H     0.23520   0.04200   0.79090   0.01267  Uiso   1.00
H56    H     0.11390   0.48160   0.78570   0.01267  Uiso   1.00
C1     C     0.01830   0.95020   0.06890   0.01267  Uiso   1.00
C2     C     0.08428   0.98904   0.03303   0.01267  Uiso   1.00
C3     C     0.40961   0.56518   0.04903   0.01267  Uiso   1.00
C4     C     0.44606   0.97588   0.06300   0.01267  Uiso   1.00
C5     C     0.47679   0.53902   0.43030   0.01267  Uiso   1.00
C6     C     0.31367   0.63266   0.10398   0.01267  Uiso   1.00
C7     C     0.04063   0.89394   0.14164   0.01267  Uiso   1.00
C8     C     0.58340   0.52200   0.97639   0.01267  Uiso   1.00
C9     C     0.06552   0.03956   0.96480   0.01267  Uiso   1.00
C10    C     0.35883   0.87854   0.13244   0.01267  Uiso   1.00
C11    C     0.49534   0.03172   0.06990   0.01267  Uiso   1.00
C12    C     0.49443   0.58614   0.02466   0.01267  Uiso   1.00
C13    C     0.35525   0.65130   0.34571   0.01267  Uiso   1.00
C14    C     0.57537   0.51286   0.44830   0.01267  Uiso   1.00
C15    C     0.59922   0.47296   0.51880   0.01267  Uiso   1.00
C16    C     0.54932   0.05616   0.00640   0.01267  Uiso   1.00
C17    C     0.35944   0.99232   0.19800   0.01267  Uiso   1.00
C18    C     0.46373   0.62434   0.24250   0.01267  Uiso   1.00
C19    C     0.30820   0.94420   0.24070   0.01267  Uiso   1.00
C20    C     0.52254   0.56332   0.29360   0.01267  Uiso   1.00
C21    C     0.03150   0.95020   0.43110   0.01267  Uiso   1.00
C22    C     0.92668   0.98904   0.46697   0.01267  Uiso   1.00
C23    C     0.02521   0.56518   0.45097   0.01267  Uiso   1.00
C24    C     0.57806   0.97588   0.43700   0.01267  Uiso   1.00
C25    C     0.98419   0.53902   0.06970   0.01267  Uiso   1.00
C26    C     0.05367   0.63266   0.39602   0.01267  Uiso   1.00
C27    C     0.06543   0.89394   0.35836   0.01267  Uiso   1.00
C28    C     0.89460   0.52200   0.52361   0.01267  Uiso   1.00
C29    C     0.89492   0.03956   0.53520   0.01267  Uiso   1.00
C30    C     0.76263   0.87854   0.36756   0.01267  Uiso   1.00
C31    C     0.47294   0.03172   0.43010   0.01267  Uiso   1.00
C32    C     0.91943   0.58614   0.47534   0.01267  Uiso   1.00
C33    C     0.99345   0.65130   0.15429   0.01267  Uiso   1.00
C34    C     0.91177   0.51286   0.05170   0.01267  Uiso   1.00
C35    C     0.92782   0.47296   0.98120   0.01267  Uiso   1.00
C36    C     0.39452   0.05616   0.49360   0.01267  Uiso   1.00
C37    C     0.64824   0.99232   0.30200   0.01267  Uiso   1.00
C38    C     0.91193   0.62434   0.25750   0.01267  Uiso   1.00
C39    C     0.74760   0.94420   0.25930   0.01267  Uiso   1.00
C40    C     0.91414   0.56332   0.20640   0.01267  Uiso   1.00
C41    C     0.98170   0.04980   0.93110   0.01267  Uiso   1.00
C42    C     0.91572   0.01096   0.96697   0.01267  Uiso   1.00
C43    C     0.59039   0.43482   0.95097   0.01267  Uiso   1.00
C44    C     0.55394   0.02412   0.93700   0.01267  Uiso   1.00
C45    C     0.52321   0.46098   0.56970   0.01267  Uiso   1.00
C46    C     0.68633   0.36734   0.89602   0.01267  Uiso   1.00
C47    C     0.95937   0.10606   0.85836   0.01267  Uiso   1.00
C48    C     0.41660   0.47800   0.02361   0.01267  Uiso   1.00
C49    C     0.93448   0.96044   0.03520   0.01267  Uiso   1.00
C50    C     0.64117   0.12146   0.86756   0.01267  Uiso   1.00
C51    C     0.50466   0.96828   0.93010   0.01267  Uiso   1.00
C52    C     0.50557   0.41386   0.97534   0.01267  Uiso   1.00
C53    C     0.64475   0.34870   0.65429   0.01267  Uiso   1.00
C54    C     0.42463   0.48714   0.55170   0.01267  Uiso   1.00
C55    C     0.40078   0.52704   0.48120   0.01267  Uiso   1.00
C56    C     0.45068   0.94384   0.99360   0.01267  Uiso   1.00
C57    C     0.64056   0.00768   0.80200   0.01267  Uiso   1.00
C58    C     0.53627   0.37566   0.75750   0.01267  Uiso   1.00
C59    C     0.69180   0.05580   0.75930   0.01267  Uiso   1.00
C60    C     0.47746   0.43668   0.70640   0.01267  Uiso   1.00
C61    C     0.96850   0.04980   0.56890   0.01267  Uiso   1.00
C62    C     0.07332   0.01096   0.53303   0.01267  Uiso   1.00
C63    C     0.97479   0.43482   0.54903   0.01267  Uiso   1.00
C64    C     0.42194   0.02412   0.56300   0.01267  Uiso   1.00
C65    C     0.01581   0.46098   0.93030   0.01267  Uiso   1.00
C66    C     0.94633   0.36734   0.60398   0.01267  Uiso   1.00
C67    C     0.93457   0.10606   0.64164   0.01267  Uiso   1.00
C68    C     0.10540   0.47800   0.47639   0.01267  Uiso   1.00
C69    C     0.10508   0.96044   0.46480   0.01267  Uiso   1.00
C70    C     0.23737   0.12146   0.63244   0.01267  Uiso   1.00
C71    C     0.52706   0.96828   0.56990   0.01267  Uiso   1.00
C72    C     0.08057   0.41386   0.52466   0.01267  Uiso   1.00
C73    C     0.00655   0.34870   0.84571   0.01267  Uiso   1.00
C74    C     0.08823   0.48714   0.94830   0.01267  Uiso   1.00
C75    C     0.07218   0.52704   0.01880   0.01267  Uiso   1.00
C76    C     0.60548   0.94384   0.50640   0.01267  Uiso   1.00
C77    C     0.35176   0.00768   0.69800   0.01267  Uiso   1.00
C78    C     0.08807   0.37566   0.74250   0.01267  Uiso   1.00
C79    C     0.25240   0.05580   0.74070   0.01267  Uiso   1.00
C80    C     0.08586   0.43668   0.79360   0.01267  Uiso   1.00
N1     N     0.39114   0.94980   0.12781   0.01267  Uiso   1.00
N2     N     0.30893   0.87340   0.19946   0.01267  Uiso   1.00
N3     N     0.45185   0.58170   0.35931   0.01267  Uiso   1.00
N4     N     0.35769   0.68058   0.27460   0.01267  Uiso   1.00
N5     N     0.65906   0.94980   0.37219   0.01267  Uiso   1.00
N6     N     0.81767   0.87340   0.30054   0.01267  Uiso   1.00
N7     N     0.96645   0.58170   0.14069   0.01267  Uiso   1.00
N8     N     0.96173   0.68058   0.22540   0.01267  Uiso   1.00
N9     N     0.60886   0.05020   0.87219   0.01267  Uiso   1.00
N10    N     0.69107   0.12660   0.80054   0.01267  Uiso   1.00
N11    N     0.54815   0.41830   0.64069   0.01267  Uiso   1.00
N12    N     0.64231   0.31942   0.72540   0.01267  Uiso   1.00
N13    N     0.34094   0.05020   0.62781   0.01267  Uiso   1.00
N14    N     0.18233   0.12660   0.69946   0.01267  Uiso   1.00
N15    N     0.03355   0.41830   0.85931   0.01267  Uiso   1.00
N16    N     0.03827   0.31942   0.77460   0.01267  Uiso   1.00
O1     O     0.11803   0.89026   0.16794   0.01267  Uiso   1.00
O2     O     0.24034   0.60646   0.12632   0.01267  Uiso   1.00
O3     O     0.98040   0.85638   0.17003   0.01267  Uiso   1.00
O4     O     0.31416   0.70854   0.12549   0.01267  Uiso   1.00
O5     O     0.99171   0.89026   0.33206   0.01267  Uiso   1.00
O6     O     0.15320   0.60646   0.37368   0.01267  Uiso   1.00
O7     O     0.16322   0.85638   0.32997   0.01267  Uiso   1.00
O8     O     0.97730   0.70854   0.37451   0.01267  Uiso   1.00
O9     O     0.88197   0.10974   0.83206   0.01267  Uiso   1.00
O10    O     0.75966   0.39354   0.87368   0.01267  Uiso   1.00
O11    O     0.01960   0.14362   0.82997   0.01267  Uiso   1.00
O12    O     0.68584   0.29146   0.87451   0.01267  Uiso   1.00
O13    O     0.00829   0.10974   0.66794   0.01267  Uiso   1.00
O14    O     0.84680   0.39354   0.62632   0.01267  Uiso   1.00
O15    O     0.83678   0.14362   0.67003   0.01267  Uiso   1.00
O16    O     0.02270   0.29146   0.62549   0.01267  Uiso   1.00
O17    O     0.14898   0.70204   0.25000   0.01267  Uiso   1.00
O18    O     0.85102   0.29796   0.75000   0.01267  Uiso   1.00
