data_BUWGEG_clean
_audit_creation_date              2014-07-02
_audit_creation_method            'Materials Studio'
_symmetry_space_group_name_H-M    'P1'
_symmetry_Int_Tables_number       1
_symmetry_cell_setting            triclinic
loop_
_symmetry_equiv_pos_as_xyz
  x,y,z
_cell_length_a                    4.6510
_cell_length_b                    10.8120
_cell_length_c                    34.6830
_cell_angle_alpha                 90.0000
_cell_angle_beta                  90.0000
_cell_angle_gamma                 95.8000
loop_
_atom_site_label
_atom_site_type_symbol
_atom_site_fract_x
_atom_site_fract_y
_atom_site_fract_z
_atom_site_U_iso_or_equiv
_atom_site_adp_type
_atom_site_occupancy
Cu1    Cu    0.08395   0.11471   0.80205   0.01267  Uiso   1.00
Cu2    Cu    0.91605   0.38529   0.30205   0.01267  Uiso   1.00
Cu3    Cu    0.91605   0.88529   0.19795   0.01267  Uiso   1.00
Cu4    Cu    0.08395   0.61471   0.69795   0.01267  Uiso   1.00
H1     H     0.94960   0.06980   0.72070   0.01267  Uiso   1.00
H2     H     0.14360   0.14570   0.66080   0.01267  Uiso   1.00
H3     H     0.05330   0.13340   0.93810   0.01267  Uiso   1.00
H4     H     0.18980   0.17930   0.87450   0.01267  Uiso   1.00
H5     H     0.50660   0.96900   0.83370   0.01267  Uiso   1.00
H6     H     0.30470   0.95750   0.89600   0.01267  Uiso   1.00
H7     H     0.05040   0.43020   0.22070   0.01267  Uiso   1.00
H8     H     0.85640   0.35430   0.16080   0.01267  Uiso   1.00
H9     H     0.94670   0.36660   0.43810   0.01267  Uiso   1.00
H10    H     0.81020   0.32070   0.37450   0.01267  Uiso   1.00
H11    H     0.49340   0.53100   0.33370   0.01267  Uiso   1.00
H12    H     0.69530   0.54250   0.39600   0.01267  Uiso   1.00
H13    H     0.05040   0.93020   0.27930   0.01267  Uiso   1.00
H14    H     0.85640   0.85430   0.33920   0.01267  Uiso   1.00
H15    H     0.94670   0.86660   0.06190   0.01267  Uiso   1.00
H16    H     0.81020   0.82070   0.12550   0.01267  Uiso   1.00
H17    H     0.49340   0.03100   0.16630   0.01267  Uiso   1.00
H18    H     0.69530   0.04250   0.10400   0.01267  Uiso   1.00
H19    H     0.94960   0.56980   0.77930   0.01267  Uiso   1.00
H20    H     0.14360   0.64570   0.83920   0.01267  Uiso   1.00
H21    H     0.05330   0.63340   0.56190   0.01267  Uiso   1.00
H22    H     0.18980   0.67930   0.62550   0.01267  Uiso   1.00
H23    H     0.50660   0.46900   0.66630   0.01267  Uiso   1.00
H24    H     0.30470   0.45750   0.60400   0.01267  Uiso   1.00
C1     C     0.42920   0.36767   0.78981   0.01267  Uiso   1.00
C2     C     0.33980   0.30331   0.75085   0.01267  Uiso   1.00
C3     C     0.08881   0.13814   0.71893   0.01267  Uiso   1.00
C4     C     0.18699   0.19336   0.68435   0.01267  Uiso   1.00
C5     C     0.43268   0.35624   0.71564   0.01267  Uiso   1.00
C6     C     0.62602   0.47874   0.71379   0.01267  Uiso   1.00
C7     C     0.93967   0.09851   0.91674   0.01267  Uiso   1.00
C8     C     0.03187   0.11663   0.87785   0.01267  Uiso   1.00
C9     C     0.61562   0.99843   0.85503   0.01267  Uiso   1.00
C10    C     0.50243   0.99412   0.89205   0.01267  Uiso   1.00
C11    C     0.67654   0.02615   0.92250   0.01267  Uiso   1.00
C12    C     0.55908   0.01269   0.96322   0.01267  Uiso   1.00
C13    C     0.57080   0.13233   0.28981   0.01267  Uiso   1.00
C14    C     0.66020   0.19669   0.25085   0.01267  Uiso   1.00
C15    C     0.91119   0.36186   0.21893   0.01267  Uiso   1.00
C16    C     0.81301   0.30664   0.18435   0.01267  Uiso   1.00
C17    C     0.56732   0.14376   0.21564   0.01267  Uiso   1.00
C18    C     0.37398   0.02126   0.21379   0.01267  Uiso   1.00
C19    C     0.06033   0.40149   0.41674   0.01267  Uiso   1.00
C20    C     0.96813   0.38337   0.37785   0.01267  Uiso   1.00
C21    C     0.38438   0.50157   0.35503   0.01267  Uiso   1.00
C22    C     0.49757   0.50588   0.39205   0.01267  Uiso   1.00
C23    C     0.32346   0.47385   0.42250   0.01267  Uiso   1.00
C24    C     0.44092   0.48731   0.46322   0.01267  Uiso   1.00
C25    C     0.57080   0.63233   0.21019   0.01267  Uiso   1.00
C26    C     0.66020   0.69669   0.24915   0.01267  Uiso   1.00
C27    C     0.91119   0.86186   0.28107   0.01267  Uiso   1.00
C28    C     0.81301   0.80664   0.31565   0.01267  Uiso   1.00
C29    C     0.56732   0.64376   0.28436   0.01267  Uiso   1.00
C30    C     0.37398   0.52126   0.28621   0.01267  Uiso   1.00
C31    C     0.06033   0.90149   0.08326   0.01267  Uiso   1.00
C32    C     0.96813   0.88337   0.12215   0.01267  Uiso   1.00
C33    C     0.38438   0.00157   0.14497   0.01267  Uiso   1.00
C34    C     0.49757   0.00588   0.10795   0.01267  Uiso   1.00
C35    C     0.32346   0.97385   0.07750   0.01267  Uiso   1.00
C36    C     0.44092   0.98731   0.03678   0.01267  Uiso   1.00
C37    C     0.42920   0.86767   0.71019   0.01267  Uiso   1.00
C38    C     0.33980   0.80331   0.74915   0.01267  Uiso   1.00
C39    C     0.08881   0.63814   0.78107   0.01267  Uiso   1.00
C40    C     0.18699   0.69336   0.81565   0.01267  Uiso   1.00
C41    C     0.43268   0.85624   0.78436   0.01267  Uiso   1.00
C42    C     0.62602   0.97874   0.78621   0.01267  Uiso   1.00
C43    C     0.93967   0.59851   0.58326   0.01267  Uiso   1.00
C44    C     0.03187   0.61663   0.62215   0.01267  Uiso   1.00
C45    C     0.61562   0.49843   0.64497   0.01267  Uiso   1.00
C46    C     0.50243   0.49412   0.60795   0.01267  Uiso   1.00
C47    C     0.67654   0.52615   0.57750   0.01267  Uiso   1.00
C48    C     0.55908   0.51269   0.53678   0.01267  Uiso   1.00
N1     N     0.18528   0.19382   0.75225   0.01267  Uiso   1.00
N2     N     0.34510   0.30035   0.68272   0.01267  Uiso   1.00
N3     N     0.88359   0.05315   0.84870   0.01267  Uiso   1.00
N4     N     0.55165   0.11402   0.98562   0.01267  Uiso   1.00
N5     N     0.47210   0.89990   0.97681   0.01267  Uiso   1.00
N6     N     0.81472   0.30618   0.25225   0.01267  Uiso   1.00
N7     N     0.65490   0.19965   0.18272   0.01267  Uiso   1.00
N8     N     0.11641   0.44685   0.34870   0.01267  Uiso   1.00
N9     N     0.44835   0.38598   0.48562   0.01267  Uiso   1.00
N10    N     0.52790   0.60010   0.47681   0.01267  Uiso   1.00
N11    N     0.81472   0.80618   0.24775   0.01267  Uiso   1.00
N12    N     0.65490   0.69965   0.31728   0.01267  Uiso   1.00
N13    N     0.11641   0.94685   0.15130   0.01267  Uiso   1.00
N14    N     0.44835   0.88598   0.01438   0.01267  Uiso   1.00
N15    N     0.52790   0.10010   0.02319   0.01267  Uiso   1.00
N16    N     0.18528   0.69382   0.74775   0.01267  Uiso   1.00
N17    N     0.34510   0.80035   0.81728   0.01267  Uiso   1.00
N18    N     0.88359   0.55315   0.65130   0.01267  Uiso   1.00
N19    N     0.55165   0.61402   0.51438   0.01267  Uiso   1.00
N20    N     0.47210   0.39990   0.52319   0.01267  Uiso   1.00
O1     O     0.31709   0.27985   0.81022   0.01267  Uiso   1.00
O2     O     0.50487   0.47449   0.80065   0.01267  Uiso   1.00
O3     O     0.54923   0.56368   0.69671   0.01267  Uiso   1.00
O4     O     0.87751   0.48736   0.72919   0.01267  Uiso   1.00
O5     O     0.68291   0.22015   0.31022   0.01267  Uiso   1.00
O6     O     0.49513   0.02551   0.30065   0.01267  Uiso   1.00
O7     O     0.45077   0.93632   0.19671   0.01267  Uiso   1.00
O8     O     0.12249   0.01264   0.22919   0.01267  Uiso   1.00
O9     O     0.68291   0.72015   0.18978   0.01267  Uiso   1.00
O10    O     0.49513   0.52551   0.19935   0.01267  Uiso   1.00
O11    O     0.45077   0.43632   0.30329   0.01267  Uiso   1.00
O12    O     0.12249   0.51264   0.27081   0.01267  Uiso   1.00
O13    O     0.31709   0.77985   0.68978   0.01267  Uiso   1.00
O14    O     0.50487   0.97449   0.69935   0.01267  Uiso   1.00
O15    O     0.54923   0.06368   0.80329   0.01267  Uiso   1.00
O16    O     0.87751   0.98736   0.77081   0.01267  Uiso   1.00
