data_CAJWAN_charged
_audit_creation_date              2014-07-02
_audit_creation_method            'Materials Studio'
_symmetry_space_group_name_H-M    'P1'
_symmetry_Int_Tables_number       1
_symmetry_cell_setting            triclinic
loop_
_symmetry_equiv_pos_as_xyz
  x,y,z
_cell_length_a                    9.6170
_cell_length_b                    9.8920
_cell_length_c                    35.1100
_cell_angle_alpha                 90.5440
_cell_angle_beta                  90.0000
_cell_angle_gamma                 90.0000
loop_
_atom_site_label
_atom_site_type_symbol
_atom_site_fract_x
_atom_site_fract_y
_atom_site_fract_z
_atom_site_U_iso_or_equiv
_atom_site_adp_type
_atom_site_occupancy
Li1    Li    0.50000   0.00000   0.00000   0.01267  Uiso   1.00
Li2    Li    0.00000   0.50000   0.50000   0.01267  Uiso   1.00
In1    In    0.52164   0.84121   0.07759   0.01267  Uiso   1.00
In2    In    0.02164   0.65879   0.42241   0.01267  Uiso   1.00
In3    In    0.47836   0.15879   0.92241   0.01267  Uiso   1.00
In4    In    0.97836   0.34121   0.57759   0.01267  Uiso   1.00
H1     H     0.51870   0.37260   0.07740   0.01267  Uiso   1.00
H2     H     0.50610   0.55320   0.17840   0.01267  Uiso   1.00
H3     H     0.50010   0.13720   0.17120   0.01267  Uiso   1.00
H4     H     0.39470   0.16320   0.22990   0.01267  Uiso   1.00
H5     H     0.34960   0.17920   0.29310   0.01267  Uiso   1.00
H6     H     0.61170   0.49970   0.23550   0.01267  Uiso   1.00
H7     H     0.65810   0.41860   0.41780   0.01267  Uiso   1.00
H8     H     0.30030   0.22340   0.41660   0.01267  Uiso   1.00
H9     H     0.29970   0.22760   0.35250   0.01267  Uiso   1.00
H10    H     0.68700   0.35000   0.47350   0.01267  Uiso   1.00
H11    H     0.47670   0.32760   0.57050   0.01267  Uiso   1.00
H12    H     0.27000   0.33470   0.47360   0.01267  Uiso   1.00
H13    H     0.56770   0.60090   0.31480   0.01267  Uiso   1.00
H14    H     0.70950   0.56590   0.29280   0.01267  Uiso   1.00
H15    H     0.72920   0.53720   0.36090   0.01267  Uiso   1.00
H16    H     0.76860   0.40270   0.33750   0.01267  Uiso   1.00
H17    H     0.01870   0.12740   0.42260   0.01267  Uiso   1.00
H18    H     0.00610   0.94680   0.32160   0.01267  Uiso   1.00
H19    H     0.00010   0.36280   0.32880   0.01267  Uiso   1.00
H20    H     0.89470   0.33680   0.27010   0.01267  Uiso   1.00
H21    H     0.84960   0.32080   0.20690   0.01267  Uiso   1.00
H22    H     0.11170   0.00030   0.26450   0.01267  Uiso   1.00
H23    H     0.15810   0.08140   0.08220   0.01267  Uiso   1.00
H24    H     0.80030   0.27660   0.08340   0.01267  Uiso   1.00
H25    H     0.79970   0.27240   0.14750   0.01267  Uiso   1.00
H26    H     0.18700   0.15000   0.02650   0.01267  Uiso   1.00
H27    H     0.97670   0.17240   0.92950   0.01267  Uiso   1.00
H28    H     0.77000   0.16530   0.02640   0.01267  Uiso   1.00
H29    H     0.06770   0.89910   0.18520   0.01267  Uiso   1.00
H30    H     0.20950   0.93410   0.20720   0.01267  Uiso   1.00
H31    H     0.22920   0.96280   0.13910   0.01267  Uiso   1.00
H32    H     0.26860   0.09730   0.16250   0.01267  Uiso   1.00
H33    H     0.48130   0.62740   0.92260   0.01267  Uiso   1.00
H34    H     0.49390   0.44680   0.82160   0.01267  Uiso   1.00
H35    H     0.49990   0.86280   0.82880   0.01267  Uiso   1.00
H36    H     0.60530   0.83680   0.77010   0.01267  Uiso   1.00
H37    H     0.65040   0.82080   0.70690   0.01267  Uiso   1.00
H38    H     0.38830   0.50030   0.76450   0.01267  Uiso   1.00
H39    H     0.34190   0.58140   0.58220   0.01267  Uiso   1.00
H40    H     0.69970   0.77660   0.58340   0.01267  Uiso   1.00
H41    H     0.70030   0.77240   0.64750   0.01267  Uiso   1.00
H42    H     0.31300   0.65000   0.52650   0.01267  Uiso   1.00
H43    H     0.52330   0.67240   0.42950   0.01267  Uiso   1.00
H44    H     0.73000   0.66530   0.52640   0.01267  Uiso   1.00
H45    H     0.43230   0.39910   0.68520   0.01267  Uiso   1.00
H46    H     0.29050   0.43410   0.70720   0.01267  Uiso   1.00
H47    H     0.27080   0.46280   0.63910   0.01267  Uiso   1.00
H48    H     0.23140   0.59730   0.66250   0.01267  Uiso   1.00
H49    H     0.98130   0.87260   0.57740   0.01267  Uiso   1.00
H50    H     0.99390   0.05320   0.67840   0.01267  Uiso   1.00
H51    H     0.99990   0.63720   0.67120   0.01267  Uiso   1.00
H52    H     0.10530   0.66320   0.72990   0.01267  Uiso   1.00
H53    H     0.15040   0.67920   0.79310   0.01267  Uiso   1.00
H54    H     0.88830   0.99970   0.73550   0.01267  Uiso   1.00
H55    H     0.84190   0.91860   0.91780   0.01267  Uiso   1.00
H56    H     0.19970   0.72340   0.91660   0.01267  Uiso   1.00
H57    H     0.20030   0.72760   0.85250   0.01267  Uiso   1.00
H58    H     0.81300   0.85000   0.97350   0.01267  Uiso   1.00
H59    H     0.02330   0.82760   0.07050   0.01267  Uiso   1.00
H60    H     0.23000   0.83470   0.97360   0.01267  Uiso   1.00
H61    H     0.93230   0.10090   0.81480   0.01267  Uiso   1.00
H62    H     0.79050   0.06590   0.79280   0.01267  Uiso   1.00
H63    H     0.77080   0.03720   0.86090   0.01267  Uiso   1.00
H64    H     0.73140   0.90270   0.83750   0.01267  Uiso   1.00
C1     C     0.51200   0.10800   0.09790   0.01267  Uiso   1.00
C2     C     0.52030   0.61000   0.10800   0.01267  Uiso   1.00
C3     C     0.73500   0.34300   0.54620   0.01267  Uiso   1.00
C4     C     0.22080   0.33900   0.54470   0.01267  Uiso   1.00
C5     C     0.50870   0.23780   0.12180   0.01267  Uiso   1.00
C6     C     0.51480   0.36660   0.10440   0.01267  Uiso   1.00
C7     C     0.51520   0.47800   0.12530   0.01267  Uiso   1.00
C8     C     0.50850   0.47150   0.16400   0.01267  Uiso   1.00
C9     C     0.50480   0.34400   0.18360   0.01267  Uiso   1.00
C10    C     0.50390   0.22400   0.16010   0.01267  Uiso   1.00
C11    C     0.49370   0.33200   0.22190   0.01267  Uiso   1.00
C12    C     0.43100   0.23900   0.24320   0.01267  Uiso   1.00
C13    C     0.56000   0.42200   0.28580   0.01267  Uiso   1.00
C14    C     0.48440   0.32900   0.30330   0.01267  Uiso   1.00
C15    C     0.41300   0.24100   0.28170   0.01267  Uiso   1.00
C16    C     0.56200   0.42800   0.24690   0.01267  Uiso   1.00
C17    C     0.47740   0.32500   0.34480   0.01267  Uiso   1.00
C18    C     0.57800   0.38800   0.36490   0.01267  Uiso   1.00
C19    C     0.58130   0.38200   0.40420   0.01267  Uiso   1.00
C20    C     0.47800   0.32450   0.42290   0.01267  Uiso   1.00
C21    C     0.37440   0.26600   0.40340   0.01267  Uiso   1.00
C22    C     0.37550   0.26800   0.36570   0.01267  Uiso   1.00
C23    C     0.47680   0.32200   0.46630   0.01267  Uiso   1.00
C24    C     0.60170   0.33700   0.48660   0.01267  Uiso   1.00
C25    C     0.59900   0.33400   0.52490   0.01267  Uiso   1.00
C26    C     0.47740   0.33000   0.54350   0.01267  Uiso   1.00
C27    C     0.35450   0.33100   0.52410   0.01267  Uiso   1.00
C28    C     0.35590   0.33000   0.48690   0.01267  Uiso   1.00
C29    C     0.63300   0.52700   0.30810   0.01267  Uiso   1.00
C30    C     0.69200   0.46500   0.34410   0.01267  Uiso   1.00
C31    C     0.01200   0.39200   0.40210   0.01267  Uiso   1.00
C32    C     0.02030   0.89000   0.39200   0.01267  Uiso   1.00
C33    C     0.23500   0.15700   0.95380   0.01267  Uiso   1.00
C34    C     0.72080   0.16100   0.95530   0.01267  Uiso   1.00
C35    C     0.00870   0.26220   0.37820   0.01267  Uiso   1.00
C36    C     0.01480   0.13340   0.39560   0.01267  Uiso   1.00
C37    C     0.01520   0.02200   0.37470   0.01267  Uiso   1.00
C38    C     0.00850   0.02850   0.33600   0.01267  Uiso   1.00
C39    C     0.00480   0.15600   0.31640   0.01267  Uiso   1.00
C40    C     0.00390   0.27600   0.33990   0.01267  Uiso   1.00
C41    C     0.99370   0.16800   0.27810   0.01267  Uiso   1.00
C42    C     0.93100   0.26100   0.25680   0.01267  Uiso   1.00
C43    C     0.06000   0.07800   0.21420   0.01267  Uiso   1.00
C44    C     0.98440   0.17100   0.19670   0.01267  Uiso   1.00
C45    C     0.91300   0.25900   0.21830   0.01267  Uiso   1.00
C46    C     0.06200   0.07200   0.25310   0.01267  Uiso   1.00
C47    C     0.97740   0.17500   0.15520   0.01267  Uiso   1.00
C48    C     0.07800   0.11200   0.13510   0.01267  Uiso   1.00
C49    C     0.08130   0.11800   0.09580   0.01267  Uiso   1.00
C50    C     0.97800   0.17550   0.07710   0.01267  Uiso   1.00
C51    C     0.87440   0.23400   0.09660   0.01267  Uiso   1.00
C52    C     0.87550   0.23200   0.13430   0.01267  Uiso   1.00
C53    C     0.97680   0.17800   0.03370   0.01267  Uiso   1.00
C54    C     0.10170   0.16300   0.01340   0.01267  Uiso   1.00
C55    C     0.09900   0.16600   0.97510   0.01267  Uiso   1.00
C56    C     0.97740   0.17000   0.95650   0.01267  Uiso   1.00
C57    C     0.85450   0.16900   0.97590   0.01267  Uiso   1.00
C58    C     0.85590   0.17000   0.01310   0.01267  Uiso   1.00
C59    C     0.13300   0.97300   0.19190   0.01267  Uiso   1.00
C60    C     0.19200   0.03500   0.15590   0.01267  Uiso   1.00
C61    C     0.48800   0.89200   0.90210   0.01267  Uiso   1.00
C62    C     0.47970   0.39000   0.89200   0.01267  Uiso   1.00
C63    C     0.26500   0.65700   0.45380   0.01267  Uiso   1.00
C64    C     0.77920   0.66100   0.45530   0.01267  Uiso   1.00
C65    C     0.49130   0.76220   0.87820   0.01267  Uiso   1.00
C66    C     0.48520   0.63340   0.89560   0.01267  Uiso   1.00
C67    C     0.48480   0.52200   0.87470   0.01267  Uiso   1.00
C68    C     0.49150   0.52850   0.83600   0.01267  Uiso   1.00
C69    C     0.49520   0.65600   0.81640   0.01267  Uiso   1.00
C70    C     0.49610   0.77600   0.83990   0.01267  Uiso   1.00
C71    C     0.50630   0.66800   0.77810   0.01267  Uiso   1.00
C72    C     0.56900   0.76100   0.75680   0.01267  Uiso   1.00
C73    C     0.44000   0.57800   0.71420   0.01267  Uiso   1.00
C74    C     0.51560   0.67100   0.69670   0.01267  Uiso   1.00
C75    C     0.58700   0.75900   0.71830   0.01267  Uiso   1.00
C76    C     0.43800   0.57200   0.75310   0.01267  Uiso   1.00
C77    C     0.52260   0.67500   0.65520   0.01267  Uiso   1.00
C78    C     0.42200   0.61200   0.63510   0.01267  Uiso   1.00
C79    C     0.41870   0.61800   0.59580   0.01267  Uiso   1.00
C80    C     0.52200   0.67550   0.57710   0.01267  Uiso   1.00
C81    C     0.62560   0.73400   0.59660   0.01267  Uiso   1.00
C82    C     0.62450   0.73200   0.63430   0.01267  Uiso   1.00
C83    C     0.52320   0.67800   0.53370   0.01267  Uiso   1.00
C84    C     0.39830   0.66300   0.51340   0.01267  Uiso   1.00
C85    C     0.40100   0.66600   0.47510   0.01267  Uiso   1.00
C86    C     0.52260   0.67000   0.45650   0.01267  Uiso   1.00
C87    C     0.64550   0.66900   0.47590   0.01267  Uiso   1.00
C88    C     0.64410   0.67000   0.51310   0.01267  Uiso   1.00
C89    C     0.36700   0.47300   0.69190   0.01267  Uiso   1.00
C90    C     0.30800   0.53500   0.65590   0.01267  Uiso   1.00
C91    C     0.98800   0.60800   0.59790   0.01267  Uiso   1.00
C92    C     0.97970   0.11000   0.60800   0.01267  Uiso   1.00
C93    C     0.76500   0.84300   0.04620   0.01267  Uiso   1.00
C94    C     0.27920   0.83900   0.04470   0.01267  Uiso   1.00
C95    C     0.99130   0.73780   0.62180   0.01267  Uiso   1.00
C96    C     0.98520   0.86660   0.60440   0.01267  Uiso   1.00
C97    C     0.98480   0.97800   0.62530   0.01267  Uiso   1.00
C98    C     0.99150   0.97150   0.66400   0.01267  Uiso   1.00
C99    C     0.99520   0.84400   0.68360   0.01267  Uiso   1.00
C100   C     0.99610   0.72400   0.66010   0.01267  Uiso   1.00
C101   C     0.00630   0.83200   0.72190   0.01267  Uiso   1.00
C102   C     0.06900   0.73900   0.74320   0.01267  Uiso   1.00
C103   C     0.94000   0.92200   0.78580   0.01267  Uiso   1.00
C104   C     0.01560   0.82900   0.80330   0.01267  Uiso   1.00
C105   C     0.08700   0.74100   0.78170   0.01267  Uiso   1.00
C106   C     0.93800   0.92800   0.74690   0.01267  Uiso   1.00
C107   C     0.02260   0.82500   0.84480   0.01267  Uiso   1.00
C108   C     0.92200   0.88800   0.86490   0.01267  Uiso   1.00
C109   C     0.91870   0.88200   0.90420   0.01267  Uiso   1.00
C110   C     0.02200   0.82450   0.92290   0.01267  Uiso   1.00
C111   C     0.12560   0.76600   0.90340   0.01267  Uiso   1.00
C112   C     0.12450   0.76800   0.86570   0.01267  Uiso   1.00
C113   C     0.02320   0.82200   0.96630   0.01267  Uiso   1.00
C114   C     0.89830   0.83700   0.98660   0.01267  Uiso   1.00
C115   C     0.90100   0.83400   0.02490   0.01267  Uiso   1.00
C116   C     0.02260   0.83000   0.04350   0.01267  Uiso   1.00
C117   C     0.14550   0.83100   0.02410   0.01267  Uiso   1.00
C118   C     0.14410   0.83000   0.98690   0.01267  Uiso   1.00
C119   C     0.86700   0.02700   0.80810   0.01267  Uiso   1.00
C120   C     0.80800   0.96500   0.84410   0.01267  Uiso   1.00
O1     O     0.50600   0.11770   0.06230   0.01267  Uiso   1.00
O2     O     0.51700   0.00520   0.11430   0.01267  Uiso   1.00
O3     O     0.51850   0.71230   0.12790   0.01267  Uiso   1.00
O4     O     0.51950   0.62130   0.07350   0.01267  Uiso   1.00
O5     O     0.84350   0.36120   0.52680   0.01267  Uiso   1.00
O6     O     0.74120   0.33160   0.58070   0.01267  Uiso   1.00
O7     O     0.11570   0.36090   0.52650   0.01267  Uiso   1.00
O8     O     0.21730   0.32590   0.57990   0.01267  Uiso   1.00
O9     O     0.00600   0.38230   0.43770   0.01267  Uiso   1.00
O10    O     0.01700   0.49480   0.38570   0.01267  Uiso   1.00
O11    O     0.01850   0.78770   0.37210   0.01267  Uiso   1.00
O12    O     0.01950   0.87870   0.42650   0.01267  Uiso   1.00
O13    O     0.34350   0.13880   0.97320   0.01267  Uiso   1.00
O14    O     0.24120   0.16840   0.91930   0.01267  Uiso   1.00
O15    O     0.61570   0.13910   0.97350   0.01267  Uiso   1.00
O16    O     0.71730   0.17410   0.92010   0.01267  Uiso   1.00
O17    O     0.49400   0.88230   0.93770   0.01267  Uiso   1.00
O18    O     0.48300   0.99480   0.88570   0.01267  Uiso   1.00
O19    O     0.48150   0.28770   0.87210   0.01267  Uiso   1.00
O20    O     0.48050   0.37870   0.92650   0.01267  Uiso   1.00
O21    O     0.15650   0.63880   0.47320   0.01267  Uiso   1.00
O22    O     0.25880   0.66840   0.41930   0.01267  Uiso   1.00
O23    O     0.88430   0.63910   0.47350   0.01267  Uiso   1.00
O24    O     0.78270   0.67410   0.42010   0.01267  Uiso   1.00
O25    O     0.99400   0.61770   0.56230   0.01267  Uiso   1.00
O26    O     0.98300   0.50520   0.61430   0.01267  Uiso   1.00
O27    O     0.98150   0.21230   0.62790   0.01267  Uiso   1.00
O28    O     0.98050   0.12130   0.57350   0.01267  Uiso   1.00
O29    O     0.65650   0.86120   0.02680   0.01267  Uiso   1.00
O30    O     0.75880   0.83160   0.08070   0.01267  Uiso   1.00
O31    O     0.38430   0.86090   0.02650   0.01267  Uiso   1.00
O32    O     0.28270   0.82590   0.07990   0.01267  Uiso   1.00
