data_CAJWER_charged
_audit_creation_date              2014-07-02
_audit_creation_method            'Materials Studio'
_symmetry_space_group_name_H-M    'P1'
_symmetry_Int_Tables_number       1
_symmetry_cell_setting            triclinic
loop_
_symmetry_equiv_pos_as_xyz
  x,y,z
_cell_length_a                    9.7592
_cell_length_b                    9.9522
_cell_length_c                    23.0426
_cell_angle_alpha                 102.1980
_cell_angle_beta                  102.2260
_cell_angle_gamma                 90.0000
loop_
_atom_site_label
_atom_site_type_symbol
_atom_site_fract_x
_atom_site_fract_y
_atom_site_fract_z
_atom_site_U_iso_or_equiv
_atom_site_adp_type
_atom_site_occupancy
In1    In    0.58504   0.90284   0.17008   0.01267  Uiso   1.00
H1     H     0.79630   0.83210   0.00700   0.01267  Uiso   1.00
H2     H     0.75280   0.79800   0.91640   0.01267  Uiso   1.00
H3     H     0.69780   0.74730   0.81040   0.01267  Uiso   1.00
H4     H     0.04170   0.82010   0.71880   0.01267  Uiso   1.00
H5     H     0.68850   0.59660   0.72060   0.01267  Uiso   1.00
H6     H     0.63150   0.55440   0.61480   0.01267  Uiso   1.00
H7     H     0.84430   0.69000   0.41300   0.01267  Uiso   1.00
H8     H     0.89680   0.75360   0.52060   0.01267  Uiso   1.00
H9     H     0.64580   0.34380   0.42260   0.01267  Uiso   1.00
H10    H     0.69410   0.41150   0.53020   0.01267  Uiso   1.00
H11    H     0.00070   0.74610   0.61320   0.01267  Uiso   1.00
H12    H     0.21070   0.83210   0.00700   0.01267  Uiso   1.00
H13    H     0.16360   0.79800   0.91640   0.01267  Uiso   1.00
H14    H     0.11260   0.74730   0.81040   0.01267  Uiso   1.00
H15    H     0.67710   0.82010   0.71880   0.01267  Uiso   1.00
H16    H     0.03210   0.59660   0.72060   0.01267  Uiso   1.00
H17    H     0.98330   0.55440   0.61480   0.01267  Uiso   1.00
H18    H     0.56870   0.69000   0.41300   0.01267  Uiso   1.00
H19    H     0.62380   0.75360   0.52060   0.01267  Uiso   1.00
H20    H     0.77680   0.34380   0.42260   0.01267  Uiso   1.00
H21    H     0.83610   0.41150   0.53020   0.01267  Uiso   1.00
H22    H     0.61250   0.74610   0.61320   0.01267  Uiso   1.00
H23    H     0.08330   0.90530   0.16660   0.01267  Uiso   1.00
H24    H     0.66650   0.28330   0.33300   0.01267  Uiso   1.00
H25    H     0.58510   0.39060   0.17020   0.01267  Uiso   1.00
H26    H     0.66290   0.68150   0.32580   0.01267  Uiso   1.00
C1     C     0.80682   0.88270   0.12344   0.01267  Uiso   1.00
C2     C     0.92435   0.86740   0.09130   0.01267  Uiso   1.00
C3     C     0.89183   0.84130   0.02826   0.01267  Uiso   1.00
C4     C     0.82672   0.78720   0.89504   0.01267  Uiso   1.00
C5     C     0.79337   0.75960   0.83154   0.01267  Uiso   1.00
C6     C     0.96380   0.75700   0.69800   0.01267  Uiso   1.00
C7     C     0.74880   0.63600   0.70000   0.01267  Uiso   1.00
C8     C     0.71970   0.60200   0.63540   0.01267  Uiso   1.00
C9     C     0.80020   0.64110   0.43640   0.01267  Uiso   1.00
C10    C     0.83080   0.67820   0.50040   0.01267  Uiso   1.00
C11    C     0.68140   0.43570   0.44240   0.01267  Uiso   1.00
C12    C     0.71190   0.47540   0.50640   0.01267  Uiso   1.00
C13    C     0.93460   0.72200   0.63540   0.01267  Uiso   1.00
C14    C     0.31662   0.88270   0.12344   0.01267  Uiso   1.00
C15    C     0.16695   0.86740   0.09130   0.01267  Uiso   1.00
C16    C     0.13643   0.84130   0.02826   0.01267  Uiso   1.00
C17    C     0.06832   0.78720   0.89504   0.01267  Uiso   1.00
C18    C     0.03817   0.75960   0.83154   0.01267  Uiso   1.00
C19    C     0.73420   0.75700   0.69800   0.01267  Uiso   1.00
C20    C     0.95120   0.63600   0.70000   0.01267  Uiso   1.00
C21    C     0.91570   0.60200   0.63540   0.01267  Uiso   1.00
C22    C     0.63620   0.64110   0.43640   0.01267  Uiso   1.00
C23    C     0.66960   0.67820   0.50040   0.01267  Uiso   1.00
C24    C     0.76100   0.43570   0.44240   0.01267  Uiso   1.00
C25    C     0.79450   0.47540   0.50640   0.01267  Uiso   1.00
C26    C     0.70080   0.72200   0.63540   0.01267  Uiso   1.00
C27    C     0.06170   0.88360   0.12340   0.01267  Uiso   1.00
C28    C     0.99790   0.82840   0.99580   0.01267  Uiso   1.00
C29    C     0.96380   0.79930   0.92760   0.01267  Uiso   1.00
C30    C     0.89940   0.75020   0.79880   0.01267  Uiso   1.00
C31    C     0.86570   0.71100   0.73140   0.01267  Uiso   1.00
C32    C     0.80180   0.64210   0.60360   0.01267  Uiso   1.00
C33    C     0.76800   0.60750   0.53600   0.01267  Uiso   1.00
C34    C     0.70350   0.52900   0.40700   0.01267  Uiso   1.00
C35    C     0.66990   0.48770   0.33980   0.01267  Uiso   1.00
C36    C     0.65500   0.35300   0.31000   0.01267  Uiso   1.00
C37    C     0.62310   0.31540   0.24620   0.01267  Uiso   1.00
C38    C     0.60670   0.41540   0.21340   0.01267  Uiso   1.00
C39    C     0.62100   0.54940   0.24200   0.01267  Uiso   1.00
C40    C     0.65290   0.58700   0.30580   0.01267  Uiso   1.00
C41    C     0.60350   0.66010   0.20700   0.01267  Uiso   1.00
C42    C     0.60860   0.16910   0.21720   0.01267  Uiso   1.00
O1     O     0.82781   0.91390   0.18002   0.01267  Uiso   1.00
O2     O     0.68335   0.85640   0.09170   0.01267  Uiso   1.00
O3     O     0.35221   0.91390   0.18002   0.01267  Uiso   1.00
O4     O     0.40835   0.85640   0.09170   0.01267  Uiso   1.00
O5     O     0.57971   0.12890   0.15942   0.01267  Uiso   1.00
O6     O     0.62494   0.07930   0.24988   0.01267  Uiso   1.00
O7     O     0.57640   0.63790   0.15280   0.01267  Uiso   1.00
O8     O     0.61910   0.78510   0.23820   0.01267  Uiso   1.00
In2    In    0.41496   0.09716   0.82992   0.01267  Uiso   1.00
H27    H     0.78930   0.16790   0.99300   0.01267  Uiso   1.00
H28    H     0.83640   0.20200   0.08360   0.01267  Uiso   1.00
H29    H     0.88740   0.25270   0.18960   0.01267  Uiso   1.00
H30    H     0.32290   0.17990   0.28120   0.01267  Uiso   1.00
H31    H     0.96790   0.40340   0.27940   0.01267  Uiso   1.00
H32    H     0.01670   0.44560   0.38520   0.01267  Uiso   1.00
H33    H     0.43130   0.31000   0.58700   0.01267  Uiso   1.00
H34    H     0.37620   0.24640   0.47940   0.01267  Uiso   1.00
H35    H     0.22320   0.65620   0.57740   0.01267  Uiso   1.00
H36    H     0.16390   0.58850   0.46980   0.01267  Uiso   1.00
H37    H     0.38750   0.25390   0.38680   0.01267  Uiso   1.00
H38    H     0.20370   0.16790   0.99300   0.01267  Uiso   1.00
H39    H     0.24720   0.20200   0.08360   0.01267  Uiso   1.00
H40    H     0.30220   0.25270   0.18960   0.01267  Uiso   1.00
H41    H     0.95830   0.17990   0.28120   0.01267  Uiso   1.00
H42    H     0.31150   0.40340   0.27940   0.01267  Uiso   1.00
H43    H     0.36850   0.44560   0.38520   0.01267  Uiso   1.00
H44    H     0.15570   0.31000   0.58700   0.01267  Uiso   1.00
H45    H     0.10320   0.24640   0.47940   0.01267  Uiso   1.00
H46    H     0.35420   0.65620   0.57740   0.01267  Uiso   1.00
H47    H     0.30590   0.58850   0.46980   0.01267  Uiso   1.00
H48    H     0.99930   0.25390   0.38680   0.01267  Uiso   1.00
H49    H     0.91670   0.09470   0.83340   0.01267  Uiso   1.00
H50    H     0.33350   0.71670   0.66700   0.01267  Uiso   1.00
H51    H     0.41490   0.60940   0.82980   0.01267  Uiso   1.00
H52    H     0.33710   0.31850   0.67420   0.01267  Uiso   1.00
C43    C     0.68338   0.11730   0.87656   0.01267  Uiso   1.00
C44    C     0.83305   0.13260   0.90870   0.01267  Uiso   1.00
C45    C     0.86357   0.15870   0.97174   0.01267  Uiso   1.00
C46    C     0.93168   0.21280   0.10496   0.01267  Uiso   1.00
C47    C     0.96183   0.24040   0.16846   0.01267  Uiso   1.00
C48    C     0.26580   0.24300   0.30200   0.01267  Uiso   1.00
C49    C     0.04880   0.36400   0.30000   0.01267  Uiso   1.00
C50    C     0.08430   0.39800   0.36460   0.01267  Uiso   1.00
C51    C     0.36380   0.35890   0.56360   0.01267  Uiso   1.00
C52    C     0.33040   0.32180   0.49960   0.01267  Uiso   1.00
C53    C     0.23900   0.56430   0.55760   0.01267  Uiso   1.00
C54    C     0.20550   0.52460   0.49360   0.01267  Uiso   1.00
C55    C     0.29920   0.27800   0.36460   0.01267  Uiso   1.00
C56    C     0.19318   0.11730   0.87656   0.01267  Uiso   1.00
C57    C     0.07565   0.13260   0.90870   0.01267  Uiso   1.00
C58    C     0.10817   0.15870   0.97174   0.01267  Uiso   1.00
C59    C     0.17328   0.21280   0.10496   0.01267  Uiso   1.00
C60    C     0.20663   0.24040   0.16846   0.01267  Uiso   1.00
C61    C     0.03620   0.24300   0.30200   0.01267  Uiso   1.00
C62    C     0.25120   0.36400   0.30000   0.01267  Uiso   1.00
C63    C     0.28030   0.39800   0.36460   0.01267  Uiso   1.00
C64    C     0.19980   0.35890   0.56360   0.01267  Uiso   1.00
C65    C     0.16920   0.32180   0.49960   0.01267  Uiso   1.00
C66    C     0.31860   0.56430   0.55760   0.01267  Uiso   1.00
C67    C     0.28810   0.52460   0.49360   0.01267  Uiso   1.00
C68    C     0.06540   0.27800   0.36460   0.01267  Uiso   1.00
C69    C     0.93830   0.11640   0.87660   0.01267  Uiso   1.00
C70    C     0.00210   0.17160   0.00420   0.01267  Uiso   1.00
C71    C     0.03620   0.20070   0.07240   0.01267  Uiso   1.00
C72    C     0.10060   0.24980   0.20120   0.01267  Uiso   1.00
C73    C     0.13430   0.28900   0.26860   0.01267  Uiso   1.00
C74    C     0.19820   0.35790   0.39640   0.01267  Uiso   1.00
C75    C     0.23200   0.39250   0.46400   0.01267  Uiso   1.00
C76    C     0.29650   0.47100   0.59300   0.01267  Uiso   1.00
C77    C     0.33010   0.51230   0.66020   0.01267  Uiso   1.00
C78    C     0.34500   0.64700   0.69000   0.01267  Uiso   1.00
C79    C     0.37690   0.68460   0.75380   0.01267  Uiso   1.00
C80    C     0.39330   0.58460   0.78660   0.01267  Uiso   1.00
C81    C     0.37900   0.45060   0.75800   0.01267  Uiso   1.00
C82    C     0.34710   0.41300   0.69420   0.01267  Uiso   1.00
C83    C     0.39650   0.33990   0.79300   0.01267  Uiso   1.00
C84    C     0.39140   0.83090   0.78280   0.01267  Uiso   1.00
O9     O     0.64779   0.08610   0.81998   0.01267  Uiso   1.00
O10    O     0.59165   0.14360   0.90830   0.01267  Uiso   1.00
O11    O     0.17219   0.08610   0.81998   0.01267  Uiso   1.00
O12    O     0.31665   0.14360   0.90830   0.01267  Uiso   1.00
O13    O     0.42029   0.87110   0.84058   0.01267  Uiso   1.00
O14    O     0.37506   0.92070   0.75012   0.01267  Uiso   1.00
O15    O     0.42360   0.36210   0.84720   0.01267  Uiso   1.00
O16    O     0.38090   0.21490   0.76180   0.01267  Uiso   1.00
H53    H     0.70800   0.38750   0.00580   0.01267  Uiso   1.00
H54    H     0.63210   0.46560   0.05840   0.01267  Uiso   1.00
H55    H     0.70220   0.61250   0.99420   0.01267  Uiso   1.00
H56    H     0.57370   0.53440   0.94160   0.01267  Uiso   1.00
H57    H     0.29200   0.61250   0.99420   0.01267  Uiso   1.00
H58    H     0.36790   0.53440   0.94160   0.01267  Uiso   1.00
H59    H     0.29780   0.38750   0.00580   0.01267  Uiso   1.00
H60    H     0.42630   0.46560   0.05840   0.01267  Uiso   1.00
H61    H     0.49490   0.26750   0.98980   0.01267  Uiso   1.00
H62    H     0.47070   0.35090   0.94140   0.01267  Uiso   1.00
H63    H     0.50510   0.73250   0.01020   0.01267  Uiso   1.00
H64    H     0.52930   0.64910   0.05860   0.01267  Uiso   1.00
C85    C     0.62470   0.43890   0.01380   0.01267  Uiso   1.00
C86    C     0.61090   0.56110   0.98620   0.01267  Uiso   1.00
C87    C     0.37530   0.56110   0.98620   0.01267  Uiso   1.00
C88    C     0.38910   0.43890   0.01380   0.01267  Uiso   1.00
N1     N     0.49140   0.35520   0.98280   0.01267  Uiso   1.00
N2     N     0.50860   0.64480   0.01720   0.01267  Uiso   1.00
