data_CAVSUP_clean
_audit_creation_date              2014-07-02
_audit_creation_method            'Materials Studio'
_symmetry_space_group_name_H-M    'P1'
_symmetry_Int_Tables_number       1
_symmetry_cell_setting            triclinic
loop_
_symmetry_equiv_pos_as_xyz
  x,y,z
_cell_length_a                    5.8490
_cell_length_b                    13.3444
_cell_length_c                    18.7820
_cell_angle_alpha                 90.0000
_cell_angle_beta                  90.0000
_cell_angle_gamma                 97.7110
loop_
_atom_site_label
_atom_site_type_symbol
_atom_site_fract_x
_atom_site_fract_y
_atom_site_fract_z
_atom_site_U_iso_or_equiv
_atom_site_adp_type
_atom_site_occupancy
La1    La    0.66490   0.37110   0.75000   0.01267  Uiso   1.00
La2    La    0.33510   0.62890   0.25000   0.01267  Uiso   1.00
P1     P     0.85600   0.56010   0.91470   0.01267  Uiso   1.00
P2     P     0.13700   0.26690   0.86640   0.01267  Uiso   1.00
P3     P     0.22000   0.45760   0.09550   0.01267  Uiso   1.00
P4     P     0.89370   0.71970   0.13490   0.01267  Uiso   1.00
P5     P     0.14400   0.43990   0.41470   0.01267  Uiso   1.00
P6     P     0.86300   0.73310   0.36640   0.01267  Uiso   1.00
P7     P     0.78000   0.54240   0.59550   0.01267  Uiso   1.00
P8     P     0.10630   0.28030   0.63490   0.01267  Uiso   1.00
C1     C     0.73900   0.67520   0.93760   0.01267  Uiso   1.00
C2     C     0.15500   0.30600   0.95830   0.01267  Uiso   1.00
C3     C     0.68200   0.83570   0.99450   0.01267  Uiso   1.00
C4     C     0.44200   0.84500   0.01870   0.01267  Uiso   1.00
C5     C     0.39600   0.95300   0.02150   0.01267  Uiso   1.00
C6     C     0.33600   0.34030   0.07930   0.01267  Uiso   1.00
C7     C     0.98200   0.73400   0.04290   0.01267  Uiso   1.00
C8     C     0.35100   0.17040   0.01830   0.01267  Uiso   1.00
C9     C     0.58500   0.13740   0.01920   0.01267  Uiso   1.00
C10    C     0.59600   0.03030   0.04130   0.01267  Uiso   1.00
C11    C     0.26100   0.32480   0.43760   0.01267  Uiso   1.00
C12    C     0.84500   0.69400   0.45830   0.01267  Uiso   1.00
C13    C     0.31800   0.16430   0.49450   0.01267  Uiso   1.00
C14    C     0.55800   0.15500   0.51870   0.01267  Uiso   1.00
C15    C     0.60400   0.04700   0.52150   0.01267  Uiso   1.00
C16    C     0.66400   0.65970   0.57930   0.01267  Uiso   1.00
C17    C     0.01800   0.26600   0.54290   0.01267  Uiso   1.00
C18    C     0.64900   0.82960   0.51830   0.01267  Uiso   1.00
C19    C     0.41500   0.86260   0.51920   0.01267  Uiso   1.00
C20    C     0.40400   0.96970   0.54130   0.01267  Uiso   1.00
N1     N     0.75100   0.73260   0.00730   0.01267  Uiso   1.00
N2     N     0.33700   0.28170   0.01030   0.01267  Uiso   1.00
N3     N     0.24900   0.26740   0.50730   0.01267  Uiso   1.00
N4     N     0.66300   0.71830   0.51030   0.01267  Uiso   1.00
O1     O     0.11900   0.57700   0.92570   0.01267  Uiso   1.00
O2     O     0.79400   0.53700   0.83640   0.01267  Uiso   1.00
O3     O     0.74200   0.47510   0.96340   0.01267  Uiso   1.00
O4     O     0.19300   0.15740   0.86200   0.01267  Uiso   1.00
O5     O     0.31600   0.33900   0.82420   0.01267  Uiso   1.00
O6     O     0.89100   0.27100   0.83870   0.01267  Uiso   1.00
O7     O     0.95500   0.43700   0.09090   0.01267  Uiso   1.00
O8     O     0.30000   0.49670   0.16960   0.01267  Uiso   1.00
O9     O     0.31600   0.53380   0.03760   0.01267  Uiso   1.00
O10    O     0.92000   0.82690   0.16740   0.01267  Uiso   1.00
O11    O     0.64200   0.66920   0.13720   0.01267  Uiso   1.00
O12    O     0.05200   0.65260   0.17160   0.01267  Uiso   1.00
O13    O     0.88100   0.42300   0.42570   0.01267  Uiso   1.00
O14    O     0.20600   0.46300   0.33640   0.01267  Uiso   1.00
O15    O     0.25800   0.52490   0.46340   0.01267  Uiso   1.00
O16    O     0.80700   0.84260   0.36200   0.01267  Uiso   1.00
O17    O     0.68400   0.66100   0.32420   0.01267  Uiso   1.00
O18    O     0.10900   0.72900   0.33870   0.01267  Uiso   1.00
O19    O     0.04500   0.56300   0.59090   0.01267  Uiso   1.00
O20    O     0.70000   0.50330   0.66960   0.01267  Uiso   1.00
O21    O     0.68400   0.46620   0.53760   0.01267  Uiso   1.00
O22    O     0.08000   0.17310   0.66740   0.01267  Uiso   1.00
O23    O     0.35800   0.33080   0.63720   0.01267  Uiso   1.00
O24    O     0.94800   0.34740   0.67160   0.01267  Uiso   1.00
