data_CAVSOJ_clean
_audit_creation_date              2014-07-02
_audit_creation_method            'Materials Studio'
_symmetry_space_group_name_H-M    'P1'
_symmetry_Int_Tables_number       1
_symmetry_cell_setting            triclinic
loop_
_symmetry_equiv_pos_as_xyz
  x,y,z
_cell_length_a                    5.9887
_cell_length_b                    12.2427
_cell_length_c                    17.7483
_cell_angle_alpha                 90.0000
_cell_angle_beta                  90.0000
_cell_angle_gamma                 103.6240
loop_
_atom_site_label
_atom_site_type_symbol
_atom_site_fract_x
_atom_site_fract_y
_atom_site_fract_z
_atom_site_U_iso_or_equiv
_atom_site_adp_type
_atom_site_occupancy
La1    La    0.30460   0.69200   0.75000   0.01267  Uiso   1.00
La2    La    0.69540   0.30800   0.25000   0.01267  Uiso   1.00
P1     P     0.35170   0.44470   0.86860   0.01267  Uiso   1.00
P2     P     0.83200   0.76100   0.87410   0.01267  Uiso   1.00
P3     P     0.69870   0.50170   0.11460   0.01267  Uiso   1.00
P4     P     0.14030   0.20130   0.11580   0.01267  Uiso   1.00
P5     P     0.64830   0.55530   0.36860   0.01267  Uiso   1.00
P6     P     0.16800   0.23900   0.37410   0.01267  Uiso   1.00
P7     P     0.30130   0.49830   0.61460   0.01267  Uiso   1.00
P8     P     0.85970   0.79870   0.61580   0.01267  Uiso   1.00
C1     C     0.26010   0.29110   0.88350   0.01267  Uiso   1.00
C2     C     0.88060   0.68760   0.95840   0.01267  Uiso   1.00
C3     C     0.90940   0.14240   0.89510   0.01267  Uiso   1.00
C4     C     0.66860   0.11560   0.92400   0.01267  Uiso   1.00
C5     C     0.57080   0.99180   0.93700   0.01267  Uiso   1.00
C6     C     0.79320   0.65120   0.09640   0.01267  Uiso   1.00
C7     C     0.13700   0.21700   0.01470   0.01267  Uiso   1.00
C8     C     0.17500   0.77900   0.05460   0.01267  Uiso   1.00
C9     C     0.20720   0.87520   0.99960   0.01267  Uiso   1.00
C10    C     0.42400   0.96400   0.00610   0.01267  Uiso   1.00
C11    C     0.73990   0.70890   0.38350   0.01267  Uiso   1.00
C12    C     0.11940   0.31240   0.45840   0.01267  Uiso   1.00
C13    C     0.09060   0.85760   0.39510   0.01267  Uiso   1.00
C14    C     0.33140   0.88440   0.42400   0.01267  Uiso   1.00
C15    C     0.42920   0.00820   0.43700   0.01267  Uiso   1.00
C16    C     0.20680   0.34880   0.59640   0.01267  Uiso   1.00
C17    C     0.86300   0.78300   0.51470   0.01267  Uiso   1.00
C18    C     0.82500   0.22100   0.55460   0.01267  Uiso   1.00
C19    C     0.79280   0.12480   0.49960   0.01267  Uiso   1.00
C20    C     0.57600   0.03600   0.50610   0.01267  Uiso   1.00
N1     N     0.06750   0.23650   0.93540   0.01267  Uiso   1.00
N2     N     0.97610   0.68210   0.03670   0.01267  Uiso   1.00
N3     N     0.93250   0.76350   0.43540   0.01267  Uiso   1.00
N4     N     0.02390   0.31790   0.53670   0.01267  Uiso   1.00
O1     O     0.60320   0.46820   0.84200   0.01267  Uiso   1.00
O2     O     0.19590   0.47190   0.80620   0.01267  Uiso   1.00
O3     O     0.32590   0.50090   0.94390   0.01267  Uiso   1.00
O4     O     0.91440   0.88840   0.88830   0.01267  Uiso   1.00
O5     O     0.97380   0.72580   0.80950   0.01267  Uiso   1.00
O6     O     0.57400   0.72700   0.85520   0.01267  Uiso   1.00
O7     O     0.43920   0.47020   0.13120   0.01267  Uiso   1.00
O8     O     0.83490   0.47890   0.18440   0.01267  Uiso   1.00
O9     O     0.75390   0.43890   0.04460   0.01267  Uiso   1.00
O10    O     0.98600   0.08700   0.13680   0.01267  Uiso   1.00
O11    O     0.04070   0.29570   0.15020   0.01267  Uiso   1.00
O12    O     0.38930   0.21430   0.14370   0.01267  Uiso   1.00
O13    O     0.39680   0.53180   0.34200   0.01267  Uiso   1.00
O14    O     0.80410   0.52810   0.30620   0.01267  Uiso   1.00
O15    O     0.67410   0.49910   0.44390   0.01267  Uiso   1.00
O16    O     0.08560   0.11160   0.38830   0.01267  Uiso   1.00
O17    O     0.02620   0.27420   0.30950   0.01267  Uiso   1.00
O18    O     0.42600   0.27300   0.35520   0.01267  Uiso   1.00
O19    O     0.56080   0.52980   0.63120   0.01267  Uiso   1.00
O20    O     0.16510   0.52110   0.68440   0.01267  Uiso   1.00
O21    O     0.24610   0.56110   0.54460   0.01267  Uiso   1.00
O22    O     0.01400   0.91300   0.63680   0.01267  Uiso   1.00
O23    O     0.95930   0.70430   0.65020   0.01267  Uiso   1.00
O24    O     0.61070   0.78570   0.64370   0.01267  Uiso   1.00
