data_CAVTAW_clean
_audit_creation_date              2014-07-02
_audit_creation_method            'Materials Studio'
_symmetry_space_group_name_H-M    'P1'
_symmetry_Int_Tables_number       1
_symmetry_cell_setting            triclinic
loop_
_symmetry_equiv_pos_as_xyz
  x,y,z
_cell_length_a                    5.8200
_cell_length_b                    12.5035
_cell_length_c                    18.1874
_cell_angle_alpha                 90.0000
_cell_angle_beta                  90.0000
_cell_angle_gamma                 101.9230
loop_
_atom_site_label
_atom_site_type_symbol
_atom_site_fract_x
_atom_site_fract_y
_atom_site_fract_z
_atom_site_U_iso_or_equiv
_atom_site_adp_type
_atom_site_occupancy
La1    La    0.62370   0.33050   0.75000   0.01267  Uiso   1.00
La2    La    0.37630   0.66950   0.25000   0.01267  Uiso   1.00
P1     P     0.82000   0.53480   0.91110   0.01267  Uiso   1.00
P2     P     0.08600   0.25210   0.88740   0.01267  Uiso   1.00
P3     P     0.20300   0.44680   0.10140   0.01267  Uiso   1.00
P4     P     0.92700   0.79320   0.11960   0.01267  Uiso   1.00
P5     P     0.18000   0.46520   0.41110   0.01267  Uiso   1.00
P6     P     0.91400   0.74790   0.38740   0.01267  Uiso   1.00
P7     P     0.79700   0.55320   0.60140   0.01267  Uiso   1.00
P8     P     0.07300   0.20680   0.61960   0.01267  Uiso   1.00
C1     C     0.68100   0.65160   0.92680   0.01267  Uiso   1.00
C2     C     0.16700   0.30910   0.97710   0.01267  Uiso   1.00
C3     C     0.72600   0.84710   0.91220   0.01267  Uiso   1.00
C4     C     0.49000   0.87630   0.90080   0.01267  Uiso   1.00
C5     C     0.47600   0.98340   0.93480   0.01267  Uiso   1.00
C6     C     0.27900   0.31150   0.10570   0.01267  Uiso   1.00
C7     C     0.91300   0.76880   0.02170   0.01267  Uiso   1.00
C8     C     0.49000   0.20930   0.01370   0.01267  Uiso   1.00
C9     C     0.35700   0.09700   0.03730   0.01267  Uiso   1.00
C10    C     0.45900   0.00100   0.01510   0.01267  Uiso   1.00
C11    C     0.31900   0.34840   0.42680   0.01267  Uiso   1.00
C12    C     0.83300   0.69090   0.47710   0.01267  Uiso   1.00
C13    C     0.27400   0.15290   0.41220   0.01267  Uiso   1.00
C14    C     0.51000   0.12370   0.40080   0.01267  Uiso   1.00
C15    C     0.52400   0.01660   0.43480   0.01267  Uiso   1.00
C16    C     0.72100   0.68850   0.60570   0.01267  Uiso   1.00
C17    C     0.08700   0.23120   0.52170   0.01267  Uiso   1.00
C18    C     0.51000   0.79070   0.51370   0.01267  Uiso   1.00
C19    C     0.64300   0.90300   0.53730   0.01267  Uiso   1.00
C20    C     0.54100   0.99900   0.51510   0.01267  Uiso   1.00
N1     N     0.71300   0.75710   0.96800   0.01267  Uiso   1.00
N2     N     0.36400   0.30030   0.02850   0.01267  Uiso   1.00
N3     N     0.28700   0.24290   0.46800   0.01267  Uiso   1.00
N4     N     0.63600   0.69970   0.52850   0.01267  Uiso   1.00
O1     O     0.08600   0.57010   0.91080   0.01267  Uiso   1.00
O2     O     0.74100   0.50040   0.83180   0.01267  Uiso   1.00
O3     O     0.72200   0.45070   0.96990   0.01267  Uiso   1.00
O4     O     0.06900   0.12700   0.89340   0.01267  Uiso   1.00
O5     O     0.29000   0.30490   0.83700   0.01267  Uiso   1.00
O6     O     0.84900   0.28150   0.86590   0.01267  Uiso   1.00
O7     O     0.95500   0.43260   0.13410   0.01267  Uiso   1.00
O8     O     0.39800   0.51690   0.15140   0.01267  Uiso   1.00
O9     O     0.23300   0.49220   0.02410   0.01267  Uiso   1.00
O10    O     0.95900   0.91800   0.13200   0.01267  Uiso   1.00
O11    O     0.69400   0.73200   0.15320   0.01267  Uiso   1.00
O12    O     0.14000   0.75160   0.15130   0.01267  Uiso   1.00
O13    O     0.91400   0.42990   0.41080   0.01267  Uiso   1.00
O14    O     0.25900   0.49960   0.33180   0.01267  Uiso   1.00
O15    O     0.27800   0.54930   0.46990   0.01267  Uiso   1.00
O16    O     0.93100   0.87300   0.39340   0.01267  Uiso   1.00
O17    O     0.71000   0.69510   0.33700   0.01267  Uiso   1.00
O18    O     0.15100   0.71850   0.36590   0.01267  Uiso   1.00
O19    O     0.04500   0.56740   0.63410   0.01267  Uiso   1.00
O20    O     0.60200   0.48310   0.65140   0.01267  Uiso   1.00
O21    O     0.76700   0.50780   0.52410   0.01267  Uiso   1.00
O22    O     0.04100   0.08200   0.63200   0.01267  Uiso   1.00
O23    O     0.30600   0.26800   0.65320   0.01267  Uiso   1.00
O24    O     0.86000   0.24840   0.65130   0.01267  Uiso   1.00
