data_CAXPEY_clean
_audit_creation_date              2014-07-02
_audit_creation_method            'Materials Studio'
_symmetry_space_group_name_H-M    'P1'
_symmetry_Int_Tables_number       1
_symmetry_cell_setting            triclinic
loop_
_symmetry_equiv_pos_as_xyz
  x,y,z
_cell_length_a                    9.2590
_cell_length_b                    11.1770
_cell_length_c                    12.1310
_cell_angle_alpha                 108.0200
_cell_angle_beta                  91.6400
_cell_angle_gamma                 105.2700
loop_
_atom_site_label
_atom_site_type_symbol
_atom_site_fract_x
_atom_site_fract_y
_atom_site_fract_z
_atom_site_U_iso_or_equiv
_atom_site_adp_type
_atom_site_occupancy
Co1    Co    0.15651   0.26358   0.37692   0.01267  Uiso   1.00
Co2    Co    0.08080   0.68970   0.82786   0.01267  Uiso   1.00
Co3    Co    0.84349   0.73642   0.62308   0.01267  Uiso   1.00
Co4    Co    0.91920   0.31030   0.17214   0.01267  Uiso   1.00
Co5    Co    0.50000   0.50000   0.50000   0.01267  Uiso   1.00
H1     H     0.80990   0.96790   0.43310   0.01267  Uiso   1.00
H2     H     0.54450   0.05190   0.21680   0.01267  Uiso   1.00
H3     H     0.36460   0.78940   0.37850   0.01267  Uiso   1.00
H4     H     0.84190   0.50220   0.89930   0.01267  Uiso   1.00
H5     H     0.46270   0.26960   0.96730   0.01267  Uiso   1.00
H6     H     0.43680   0.46610   0.74350   0.01267  Uiso   1.00
H7     H     0.65480   0.32190   0.29960   0.01267  Uiso   1.00
H8     H     0.03180   0.59340   0.40920   0.01267  Uiso   1.00
H9     H     0.19010   0.03210   0.56690   0.01267  Uiso   1.00
H10    H     0.45550   0.94810   0.78320   0.01267  Uiso   1.00
H11    H     0.63540   0.21060   0.62150   0.01267  Uiso   1.00
H12    H     0.15810   0.49780   0.10070   0.01267  Uiso   1.00
H13    H     0.53730   0.73040   0.03270   0.01267  Uiso   1.00
H14    H     0.56320   0.53390   0.25650   0.01267  Uiso   1.00
H15    H     0.34520   0.67810   0.70040   0.01267  Uiso   1.00
H16    H     0.96820   0.40660   0.59080   0.01267  Uiso   1.00
C1     C     0.60960   0.78070   0.48710   0.01267  Uiso   1.00
C2     C     0.58590   0.86570   0.41700   0.01267  Uiso   1.00
C3     C     0.71530   0.95540   0.39580   0.01267  Uiso   1.00
C4     C     0.70110   0.02310   0.32090   0.01267  Uiso   1.00
C5     C     0.55530   0.00770   0.26860   0.01267  Uiso   1.00
C6     C     0.42930   0.92700   0.29460   0.01267  Uiso   1.00
C7     C     0.44790   0.85000   0.36670   0.01267  Uiso   1.00
C8     C     0.83950   0.11150   0.29270   0.01267  Uiso   1.00
C9     C     0.71960   0.59410   0.74650   0.01267  Uiso   1.00
C10    C     0.65310   0.50220   0.81200   0.01267  Uiso   1.00
C11    C     0.73770   0.46610   0.88710   0.01267  Uiso   1.00
C12    C     0.67300   0.37880   0.94410   0.01267  Uiso   1.00
C13    C     0.51090   0.32760   0.93000   0.01267  Uiso   1.00
C14    C     0.42990   0.36940   0.85790   0.01267  Uiso   1.00
C15    C     0.49590   0.44820   0.79610   0.01267  Uiso   1.00
C16    C     0.75430   0.33800   0.02480   0.01267  Uiso   1.00
C17    C     0.72620   0.39960   0.34350   0.01267  Uiso   1.00
C18    C     0.93080   0.54690   0.40270   0.01267  Uiso   1.00
C19    C     0.39040   0.21930   0.51290   0.01267  Uiso   1.00
C20    C     0.41410   0.13430   0.58300   0.01267  Uiso   1.00
C21    C     0.28470   0.04460   0.60420   0.01267  Uiso   1.00
C22    C     0.29890   0.97690   0.67910   0.01267  Uiso   1.00
C23    C     0.44470   0.99230   0.73140   0.01267  Uiso   1.00
C24    C     0.57070   0.07300   0.70540   0.01267  Uiso   1.00
C25    C     0.55210   0.15000   0.63330   0.01267  Uiso   1.00
C26    C     0.16050   0.88850   0.70730   0.01267  Uiso   1.00
C27    C     0.28040   0.40590   0.25350   0.01267  Uiso   1.00
C28    C     0.34690   0.49780   0.18800   0.01267  Uiso   1.00
C29    C     0.26230   0.53390   0.11290   0.01267  Uiso   1.00
C30    C     0.32700   0.62120   0.05590   0.01267  Uiso   1.00
C31    C     0.48910   0.67240   0.07000   0.01267  Uiso   1.00
C32    C     0.57010   0.63060   0.14210   0.01267  Uiso   1.00
C33    C     0.50410   0.55180   0.20390   0.01267  Uiso   1.00
C34    C     0.24570   0.66200   0.97520   0.01267  Uiso   1.00
C35    C     0.27380   0.60040   0.65650   0.01267  Uiso   1.00
C36    C     0.06920   0.45310   0.59730   0.01267  Uiso   1.00
N1     N     0.83590   0.58650   0.47680   0.01267  Uiso   1.00
N2     N     0.70020   0.48650   0.43610   0.01267  Uiso   1.00
N3     N     0.86720   0.43670   0.32080   0.01267  Uiso   1.00
N4     N     0.28230   0.91800   0.24770   0.01267  Uiso   1.00
N5     N     0.26130   0.31140   0.83640   0.01267  Uiso   1.00
N6     N     0.16410   0.41350   0.52320   0.01267  Uiso   1.00
N7     N     0.29980   0.51350   0.56390   0.01267  Uiso   1.00
N8     N     0.13280   0.56330   0.67920   0.01267  Uiso   1.00
N9     N     0.71770   0.08200   0.75230   0.01267  Uiso   1.00
N10    N     0.73870   0.68860   0.16360   0.01267  Uiso   1.00
O1     O     0.95070   0.14780   0.36270   0.01267  Uiso   1.00
O2     O     0.73000   0.83020   0.55960   0.01267  Uiso   1.00
O3     O     0.63950   0.61140   0.67290   0.01267  Uiso   1.00
O4     O     0.86240   0.65470   0.76380   0.01267  Uiso   1.00
O5     O     0.51470   0.67670   0.47080   0.01267  Uiso   1.00
O6     O     0.82640   0.14270   0.20480   0.01267  Uiso   1.00
O7     O     0.89920   0.37480   0.03520   0.01267  Uiso   1.00
O8     O     0.68630   0.27970   0.08800   0.01267  Uiso   1.00
O9     O     0.27030   0.98010   0.18550   0.01267  Uiso   1.00
O10    O     0.17450   0.84320   0.26900   0.01267  Uiso   1.00
O11    O     0.20550   0.24210   0.89250   0.01267  Uiso   1.00
O12    O     0.19050   0.34060   0.77030   0.01267  Uiso   1.00
O13    O     0.04930   0.85220   0.63730   0.01267  Uiso   1.00
O14    O     0.27000   0.16980   0.44040   0.01267  Uiso   1.00
O15    O     0.36050   0.38860   0.32710   0.01267  Uiso   1.00
O16    O     0.13760   0.34530   0.23620   0.01267  Uiso   1.00
O17    O     0.48530   0.32330   0.52920   0.01267  Uiso   1.00
O18    O     0.17360   0.85730   0.79520   0.01267  Uiso   1.00
O19    O     0.10080   0.62520   0.96480   0.01267  Uiso   1.00
O20    O     0.31370   0.72030   0.91200   0.01267  Uiso   1.00
O21    O     0.72970   0.01990   0.81450   0.01267  Uiso   1.00
O22    O     0.82550   0.15680   0.73100   0.01267  Uiso   1.00
O23    O     0.79450   0.75790   0.10750   0.01267  Uiso   1.00
O24    O     0.80950   0.65940   0.22970   0.01267  Uiso   1.00
