data_CAXSUR_clean5b
_audit_creation_date              2014-07-02
_audit_creation_method            'Materials Studio'
_symmetry_space_group_name_H-M    'P1'
_symmetry_Int_Tables_number       1
_symmetry_cell_setting            triclinic
loop_
_symmetry_equiv_pos_as_xyz
  x,y,z
_cell_length_a                    19.0518
_cell_length_b                    19.0518
_cell_length_c                    19.0518
_cell_angle_alpha                 75.0369
_cell_angle_beta                  75.0369
_cell_angle_gamma                 75.0369
loop_
_atom_site_label
_atom_site_type_symbol
_atom_site_fract_x
_atom_site_fract_y
_atom_site_fract_z
_atom_site_U_iso_or_equiv
_atom_site_adp_type
_atom_site_occupancy
Al1    Al    0.23540   0.69610   0.53190   0.01267  Uiso   1.00
Al2    Al    0.33730   0.78030   0.43010   0.01267  Uiso   1.00
Al3    Al    0.53190   0.23540   0.69610   0.01267  Uiso   1.00
Al4    Al    0.43010   0.33730   0.78030   0.01267  Uiso   1.00
Al5    Al    0.69610   0.53190   0.23540   0.01267  Uiso   1.00
Al6    Al    0.78030   0.43010   0.33730   0.01267  Uiso   1.00
Al7    Al    0.76460   0.30390   0.46810   0.01267  Uiso   1.00
Al8    Al    0.66270   0.21970   0.56990   0.01267  Uiso   1.00
Al9    Al    0.46810   0.76460   0.30390   0.01267  Uiso   1.00
Al10   Al    0.56990   0.66270   0.21970   0.01267  Uiso   1.00
Al11   Al    0.30390   0.46810   0.76460   0.01267  Uiso   1.00
Al12   Al    0.21970   0.56990   0.66270   0.01267  Uiso   1.00
C1     C     0.13370   0.60070   0.55470   0.01267  Uiso   1.00
C2     C     0.08020   0.57410   0.53010   0.01267  Uiso   1.00
C3     C     0.05510   0.61600   0.46500   0.01267  Uiso   1.00
C4     C     0.00900   0.58940   0.43570   0.01267  Uiso   1.00
C5     C     0.98930   0.52170   0.47000   0.01267  Uiso   1.00
C6     C     0.05830   0.50670   0.56600   0.01267  Uiso   1.00
C7     C     0.99500   0.96100   0.52000   0.01267  Uiso   1.00
C8     C     0.12300   0.91700   0.47200   0.01267  Uiso   1.00
C9     C     0.13660   0.98260   0.43060   0.01267  Uiso   1.00
C10    C     0.05320   0.90720   0.51920   0.01267  Uiso   1.00
C11    C     0.07370   0.04770   0.43470   0.01267  Uiso   1.00
C12    C     0.18700   0.85000   0.47200   0.01267  Uiso   1.00
C13    C     0.31760   0.64860   0.40660   0.01267  Uiso   1.00
C14    C     0.21720   0.72020   0.67420   0.01267  Uiso   1.00
C15    C     0.29300   0.54660   0.52180   0.01267  Uiso   1.00
C16    C     0.36650   0.70550   0.56450   0.01267  Uiso   1.00
C17    C     0.55470   0.13370   0.60070   0.01267  Uiso   1.00
C18    C     0.53010   0.08020   0.57410   0.01267  Uiso   1.00
C19    C     0.46500   0.05510   0.61600   0.01267  Uiso   1.00
C20    C     0.43570   0.00900   0.58940   0.01267  Uiso   1.00
C21    C     0.47000   0.98930   0.52170   0.01267  Uiso   1.00
C22    C     0.56600   0.05830   0.50670   0.01267  Uiso   1.00
C23    C     0.52000   0.99500   0.96100   0.01267  Uiso   1.00
C24    C     0.47200   0.12300   0.91700   0.01267  Uiso   1.00
C25    C     0.43060   0.13660   0.98260   0.01267  Uiso   1.00
C26    C     0.51920   0.05320   0.90720   0.01267  Uiso   1.00
C27    C     0.43470   0.07370   0.04770   0.01267  Uiso   1.00
C28    C     0.47200   0.18700   0.85000   0.01267  Uiso   1.00
C29    C     0.40660   0.31760   0.64860   0.01267  Uiso   1.00
C30    C     0.67420   0.21720   0.72020   0.01267  Uiso   1.00
C31    C     0.52180   0.29300   0.54660   0.01267  Uiso   1.00
C32    C     0.56450   0.36650   0.70550   0.01267  Uiso   1.00
C33    C     0.60070   0.55470   0.13370   0.01267  Uiso   1.00
C34    C     0.57410   0.53010   0.08020   0.01267  Uiso   1.00
C35    C     0.61600   0.46500   0.05510   0.01267  Uiso   1.00
C36    C     0.58940   0.43570   0.00900   0.01267  Uiso   1.00
C37    C     0.52170   0.47000   0.98930   0.01267  Uiso   1.00
C38    C     0.50670   0.56600   0.05830   0.01267  Uiso   1.00
C39    C     0.96100   0.52000   0.99500   0.01267  Uiso   1.00
C40    C     0.91700   0.47200   0.12300   0.01267  Uiso   1.00
C41    C     0.98260   0.43060   0.13660   0.01267  Uiso   1.00
C42    C     0.90720   0.51920   0.05320   0.01267  Uiso   1.00
C43    C     0.04770   0.43470   0.07370   0.01267  Uiso   1.00
C44    C     0.85000   0.47200   0.18700   0.01267  Uiso   1.00
C45    C     0.64860   0.40660   0.31760   0.01267  Uiso   1.00
C46    C     0.72020   0.67420   0.21720   0.01267  Uiso   1.00
C47    C     0.54660   0.52180   0.29300   0.01267  Uiso   1.00
C48    C     0.70550   0.56450   0.36650   0.01267  Uiso   1.00
C49    C     0.86630   0.39930   0.44530   0.01267  Uiso   1.00
C50    C     0.91980   0.42590   0.46990   0.01267  Uiso   1.00
C51    C     0.94490   0.38400   0.53500   0.01267  Uiso   1.00
C52    C     0.99100   0.41060   0.56430   0.01267  Uiso   1.00
C53    C     0.01070   0.47830   0.53000   0.01267  Uiso   1.00
C54    C     0.94170   0.49330   0.43400   0.01267  Uiso   1.00
C55    C     0.00500   0.03900   0.48000   0.01267  Uiso   1.00
C56    C     0.87700   0.08300   0.52800   0.01267  Uiso   1.00
C57    C     0.86340   0.01740   0.56940   0.01267  Uiso   1.00
C58    C     0.94680   0.09280   0.48080   0.01267  Uiso   1.00
C59    C     0.92630   0.95230   0.56530   0.01267  Uiso   1.00
C60    C     0.81300   0.15000   0.52800   0.01267  Uiso   1.00
C61    C     0.68240   0.35140   0.59340   0.01267  Uiso   1.00
C62    C     0.78280   0.27980   0.32580   0.01267  Uiso   1.00
C63    C     0.70700   0.45340   0.47820   0.01267  Uiso   1.00
C64    C     0.63350   0.29450   0.43550   0.01267  Uiso   1.00
C65    C     0.44530   0.86630   0.39930   0.01267  Uiso   1.00
C66    C     0.46990   0.91980   0.42590   0.01267  Uiso   1.00
C67    C     0.53500   0.94490   0.38400   0.01267  Uiso   1.00
C68    C     0.56430   0.99100   0.41060   0.01267  Uiso   1.00
C69    C     0.53000   0.01070   0.47830   0.01267  Uiso   1.00
C70    C     0.43400   0.94170   0.49330   0.01267  Uiso   1.00
C71    C     0.48000   0.00500   0.03900   0.01267  Uiso   1.00
C72    C     0.52800   0.87700   0.08300   0.01267  Uiso   1.00
C73    C     0.56940   0.86340   0.01740   0.01267  Uiso   1.00
C74    C     0.48080   0.94680   0.09280   0.01267  Uiso   1.00
C75    C     0.56530   0.92630   0.95230   0.01267  Uiso   1.00
C76    C     0.52800   0.81300   0.15000   0.01267  Uiso   1.00
C77    C     0.59340   0.68240   0.35140   0.01267  Uiso   1.00
C78    C     0.32580   0.78280   0.27980   0.01267  Uiso   1.00
C79    C     0.47820   0.70700   0.45340   0.01267  Uiso   1.00
C80    C     0.43550   0.63350   0.29450   0.01267  Uiso   1.00
C81    C     0.39930   0.44530   0.86630   0.01267  Uiso   1.00
C82    C     0.42590   0.46990   0.91980   0.01267  Uiso   1.00
C83    C     0.38400   0.53500   0.94490   0.01267  Uiso   1.00
C84    C     0.41060   0.56430   0.99100   0.01267  Uiso   1.00
C85    C     0.47830   0.53000   0.01070   0.01267  Uiso   1.00
C86    C     0.49330   0.43400   0.94170   0.01267  Uiso   1.00
C87    C     0.03900   0.48000   0.00500   0.01267  Uiso   1.00
C88    C     0.08300   0.52800   0.87700   0.01267  Uiso   1.00
C89    C     0.01740   0.56940   0.86340   0.01267  Uiso   1.00
C90    C     0.09280   0.48080   0.94680   0.01267  Uiso   1.00
C91    C     0.95230   0.56530   0.92630   0.01267  Uiso   1.00
C92    C     0.15000   0.52800   0.81300   0.01267  Uiso   1.00
C93    C     0.35140   0.59340   0.68240   0.01267  Uiso   1.00
C94    C     0.27980   0.32580   0.78280   0.01267  Uiso   1.00
C95    C     0.45340   0.47820   0.70700   0.01267  Uiso   1.00
C96    C     0.29450   0.43550   0.63350   0.01267  Uiso   1.00
O1     O     0.16260   0.65400   0.51630   0.01267  Uiso   1.00
O2     O     0.30830   0.75030   0.53530   0.01267  Uiso   1.00
O3     O     0.17200   0.78850   0.51220   0.01267  Uiso   1.00
O4     O     0.24950   0.85490   0.43640   0.01267  Uiso   1.00
O5     O     0.27560   0.71360   0.42860   0.01267  Uiso   1.00
O6     O     0.15020   0.55740   0.61360   0.01267  Uiso   1.00
O7     O     0.29510   0.59450   0.56630   0.01267  Uiso   1.00
O8     O     0.18870   0.68170   0.63770   0.01267  Uiso   1.00
O9     O     0.51630   0.16260   0.65400   0.01267  Uiso   1.00
O10    O     0.53530   0.30830   0.75030   0.01267  Uiso   1.00
O11    O     0.51220   0.17200   0.78850   0.01267  Uiso   1.00
O12    O     0.43640   0.24950   0.85490   0.01267  Uiso   1.00
O13    O     0.42860   0.27560   0.71360   0.01267  Uiso   1.00
O14    O     0.61360   0.15020   0.55740   0.01267  Uiso   1.00
O15    O     0.56630   0.29510   0.59450   0.01267  Uiso   1.00
O16    O     0.63770   0.18870   0.68170   0.01267  Uiso   1.00
O17    O     0.65400   0.51630   0.16260   0.01267  Uiso   1.00
O18    O     0.75030   0.53530   0.30830   0.01267  Uiso   1.00
O19    O     0.78850   0.51220   0.17200   0.01267  Uiso   1.00
O20    O     0.85490   0.43640   0.24950   0.01267  Uiso   1.00
O21    O     0.71360   0.42860   0.27560   0.01267  Uiso   1.00
O22    O     0.55740   0.61360   0.15020   0.01267  Uiso   1.00
O23    O     0.59450   0.56630   0.29510   0.01267  Uiso   1.00
O24    O     0.68170   0.63770   0.18870   0.01267  Uiso   1.00
O25    O     0.83740   0.34600   0.48370   0.01267  Uiso   1.00
O26    O     0.69170   0.24970   0.46470   0.01267  Uiso   1.00
O27    O     0.82800   0.21150   0.48780   0.01267  Uiso   1.00
O28    O     0.75050   0.14510   0.56360   0.01267  Uiso   1.00
O29    O     0.72440   0.28640   0.57140   0.01267  Uiso   1.00
O30    O     0.84980   0.44260   0.38640   0.01267  Uiso   1.00
O31    O     0.70490   0.40550   0.43370   0.01267  Uiso   1.00
O32    O     0.81130   0.31830   0.36230   0.01267  Uiso   1.00
O33    O     0.48370   0.83740   0.34600   0.01267  Uiso   1.00
O34    O     0.46470   0.69170   0.24970   0.01267  Uiso   1.00
O35    O     0.48780   0.82800   0.21150   0.01267  Uiso   1.00
O36    O     0.56360   0.75050   0.14510   0.01267  Uiso   1.00
O37    O     0.57140   0.72440   0.28640   0.01267  Uiso   1.00
O38    O     0.38640   0.84980   0.44260   0.01267  Uiso   1.00
O39    O     0.43370   0.70490   0.40550   0.01267  Uiso   1.00
O40    O     0.36230   0.81130   0.31830   0.01267  Uiso   1.00
O41    O     0.34600   0.48370   0.83740   0.01267  Uiso   1.00
O42    O     0.24970   0.46470   0.69170   0.01267  Uiso   1.00
O43    O     0.21150   0.48780   0.82800   0.01267  Uiso   1.00
O44    O     0.14510   0.56360   0.75050   0.01267  Uiso   1.00
O45    O     0.28640   0.57140   0.72440   0.01267  Uiso   1.00
O46    O     0.44260   0.38640   0.84980   0.01267  Uiso   1.00
O47    O     0.40550   0.43370   0.70490   0.01267  Uiso   1.00
O48    O     0.31830   0.36230   0.81130   0.01267  Uiso   1.00
H1     H     0.07234   0.67119   0.43652   0.01267  Uiso   1.00
H2     H     0.98787   0.62347   0.38382   0.01267  Uiso   1.00
H3     H     0.07591   0.47481   0.62025   0.01267  Uiso   1.00
H4     H     0.15637   0.97680   0.37018   0.01267  Uiso   1.00
H5     H     0.18292   0.99727   0.44828   0.01267  Uiso   1.00
H6     H     0.04745   0.85118   0.55744   0.01267  Uiso   1.00
H7     H     0.06451   0.07318   0.37586   0.01267  Uiso   1.00
H8     H     0.08953   0.09123   0.45562   0.01267  Uiso   1.00
H9     H     0.28953   0.60988   0.39175   0.01267  Uiso   1.00
H10    H     0.38011   0.63402   0.40341   0.01267  Uiso   1.00
H11    H     0.27973   0.71142   0.66867   0.01267  Uiso   1.00
H12    H     0.17776   0.76017   0.70930   0.01267  Uiso   1.00
H13    H     0.34694   0.51498   0.49185   0.01267  Uiso   1.00
H14    H     0.23737   0.53951   0.51578   0.01267  Uiso   1.00
H15    H     0.39152   0.64868   0.54975   0.01267  Uiso   1.00
H16    H     0.39023   0.72479   0.60371   0.01267  Uiso   1.00
H17    H     0.43652   0.07234   0.67119   0.01267  Uiso   1.00
H18    H     0.38382   0.98787   0.62347   0.01267  Uiso   1.00
H19    H     0.62025   0.07591   0.47481   0.01267  Uiso   1.00
H20    H     0.39472   0.19407   0.98631   0.01267  Uiso   1.00
H21    H     0.55744   0.04745   0.85118   0.01267  Uiso   1.00
H22    H     0.40071   0.08167   0.10488   0.01267  Uiso   1.00
H23    H     0.43189   0.29820   0.59397   0.01267  Uiso   1.00
H24    H     0.36327   0.37144   0.64993   0.01267  Uiso   1.00
H25    H     0.73717   0.20078   0.71311   0.01267  Uiso   1.00
H26    H     0.64080   0.25670   0.75848   0.01267  Uiso   1.00
H27    H     0.54577   0.25914   0.50135   0.01267  Uiso   1.00
H28    H     0.46186   0.32517   0.55313   0.01267  Uiso   1.00
H29    H     0.61584   0.35628   0.65990   0.01267  Uiso   1.00
H30    H     0.53762   0.42547   0.71357   0.01267  Uiso   1.00
H31    H     0.67119   0.43652   0.07234   0.01267  Uiso   1.00
H32    H     0.62347   0.38382   0.98787   0.01267  Uiso   1.00
H33    H     0.47481   0.62025   0.07591   0.01267  Uiso   1.00
H34    H     0.98631   0.39472   0.19407   0.01267  Uiso   1.00
H35    H     0.85118   0.55744   0.04745   0.01267  Uiso   1.00
H36    H     0.10488   0.40071   0.08167   0.01267  Uiso   1.00
H37    H     0.63103   0.35831   0.30648   0.01267  Uiso   1.00
H38    H     0.61287   0.43685   0.36316   0.01267  Uiso   1.00
H39    H     0.78346   0.66049   0.20571   0.01267  Uiso   1.00
H40    H     0.68812   0.71748   0.25177   0.01267  Uiso   1.00
H41    H     0.56969   0.47112   0.26646   0.01267  Uiso   1.00
H42    H     0.48479   0.53652   0.31784   0.01267  Uiso   1.00
H43    H     0.64425   0.56149   0.38263   0.01267  Uiso   1.00
H44    H     0.72922   0.59197   0.39912   0.01267  Uiso   1.00
H45    H     0.92766   0.32881   0.56348   0.01267  Uiso   1.00
H46    H     0.01213   0.37653   0.61618   0.01267  Uiso   1.00
H47    H     0.92409   0.52519   0.37975   0.01267  Uiso   1.00
H48    H     0.80593   0.01369   0.60528   0.01267  Uiso   1.00
H49    H     0.95255   0.14882   0.44256   0.01267  Uiso   1.00
H50    H     0.91833   0.89512   0.59929   0.01267  Uiso   1.00
H51    H     0.61989   0.36598   0.59659   0.01267  Uiso   1.00
H52    H     0.71047   0.39012   0.60825   0.01267  Uiso   1.00
H53    H     0.82224   0.23983   0.29070   0.01267  Uiso   1.00
H54    H     0.72027   0.28858   0.33133   0.01267  Uiso   1.00
H55    H     0.76263   0.46049   0.48422   0.01267  Uiso   1.00
H56    H     0.65306   0.48502   0.50815   0.01267  Uiso   1.00
H57    H     0.60977   0.27521   0.39629   0.01267  Uiso   1.00
H58    H     0.60848   0.35132   0.45025   0.01267  Uiso   1.00
H59    H     0.56348   0.92766   0.32881   0.01267  Uiso   1.00
H60    H     0.61618   0.01213   0.37653   0.01267  Uiso   1.00
H61    H     0.37970   0.92519   0.52676   0.01267  Uiso   1.00
H62    H     0.60528   0.80593   0.01369   0.01267  Uiso   1.00
H63    H     0.44318   0.95083   0.14945   0.01267  Uiso   1.00
H64    H     0.59936   0.91814   0.89519   0.01267  Uiso   1.00
H65    H     0.63673   0.62856   0.35007   0.01267  Uiso   1.00
H66    H     0.56811   0.70180   0.40603   0.01267  Uiso   1.00
H67    H     0.35920   0.74330   0.24152   0.01267  Uiso   1.00
H68    H     0.26283   0.79922   0.28689   0.01267  Uiso   1.00
H69    H     0.53814   0.67483   0.44687   0.01267  Uiso   1.00
H70    H     0.45423   0.74086   0.49865   0.01267  Uiso   1.00
H71    H     0.46238   0.57453   0.28643   0.01267  Uiso   1.00
H72    H     0.38416   0.64372   0.34010   0.01267  Uiso   1.00
H73    H     0.32881   0.56348   0.92766   0.01267  Uiso   1.00
H74    H     0.37653   0.61618   0.01213   0.01267  Uiso   1.00
H75    H     0.52519   0.37975   0.92409   0.01267  Uiso   1.00
H76    H     0.01369   0.60528   0.80593   0.01267  Uiso   1.00
H77    H     0.14945   0.44318   0.95083   0.01267  Uiso   1.00
H78    H     0.89512   0.59929   0.91833   0.01267  Uiso   1.00
H79    H     0.38713   0.56315   0.63684   0.01267  Uiso   1.00
H80    H     0.36897   0.64169   0.69352   0.01267  Uiso   1.00
H81    H     0.31188   0.28252   0.74823   0.01267  Uiso   1.00
H82    H     0.21654   0.33951   0.79429   0.01267  Uiso   1.00
H83    H     0.51521   0.46348   0.68216   0.01267  Uiso   1.00
H84    H     0.43031   0.52888   0.73354   0.01267  Uiso   1.00
H85    H     0.27078   0.40803   0.60088   0.01267  Uiso   1.00
H86    H     0.35575   0.43851   0.61737   0.01267  Uiso   1.00
