data_CAYCEL_charged
_audit_creation_date              2014-07-02
_audit_creation_method            'Materials Studio'
_symmetry_space_group_name_H-M    'P1'
_symmetry_Int_Tables_number       1
_symmetry_cell_setting            triclinic
loop_
_symmetry_equiv_pos_as_xyz
  x,y,z
_cell_length_a                    14.3827
_cell_length_b                    14.3827
_cell_length_c                    19.9920
_cell_angle_alpha                 90.0000
_cell_angle_beta                  90.0000
_cell_angle_gamma                 120.0000
loop_
_atom_site_label
_atom_site_type_symbol
_atom_site_fract_x
_atom_site_fract_y
_atom_site_fract_z
_atom_site_U_iso_or_equiv
_atom_site_adp_type
_atom_site_occupancy
P1     P     0.44052   0.29110   0.03301   0.01267  Uiso   1.00
P2     P     0.44984   0.45216   0.13322   0.01267  Uiso   1.00
P3     P     0.85058   0.55948   0.03301   0.01267  Uiso   1.00
P4     P     0.00232   0.55016   0.13322   0.01267  Uiso   1.00
P5     P     0.70890   0.14942   0.03301   0.01267  Uiso   1.00
P6     P     0.54784   0.99768   0.13322   0.01267  Uiso   1.00
P7     P     0.55948   0.70890   0.96699   0.01267  Uiso   1.00
P8     P     0.55016   0.54784   0.86678   0.01267  Uiso   1.00
P9     P     0.14942   0.44052   0.96699   0.01267  Uiso   1.00
P10    P     0.99768   0.44984   0.86678   0.01267  Uiso   1.00
P11    P     0.29110   0.85058   0.96699   0.01267  Uiso   1.00
P12    P     0.45216   0.00232   0.86678   0.01267  Uiso   1.00
H1     H     0.26830   0.24130   0.11110   0.01267  Uiso   1.00
H2     H     0.48940   0.31570   0.20980   0.01267  Uiso   1.00
H3     H     0.56740   0.33570   0.14970   0.01267  Uiso   1.00
H4     H     0.47260   0.21960   0.16440   0.01267  Uiso   1.00
H5     H     0.97300   0.73170   0.11110   0.01267  Uiso   1.00
H6     H     0.82630   0.51060   0.20980   0.01267  Uiso   1.00
H7     H     0.76830   0.43260   0.14970   0.01267  Uiso   1.00
H8     H     0.74700   0.52740   0.16440   0.01267  Uiso   1.00
H9     H     0.75870   0.02700   0.11110   0.01267  Uiso   1.00
H10    H     0.68430   0.17370   0.20980   0.01267  Uiso   1.00
H11    H     0.66430   0.23170   0.14970   0.01267  Uiso   1.00
H12    H     0.78040   0.25300   0.16440   0.01267  Uiso   1.00
H13    H     0.73170   0.75870   0.88890   0.01267  Uiso   1.00
H14    H     0.51060   0.68430   0.79020   0.01267  Uiso   1.00
H15    H     0.43260   0.66430   0.85030   0.01267  Uiso   1.00
H16    H     0.52740   0.78040   0.83560   0.01267  Uiso   1.00
H17    H     0.02700   0.26830   0.88890   0.01267  Uiso   1.00
H18    H     0.17370   0.48940   0.79020   0.01267  Uiso   1.00
H19    H     0.23170   0.56740   0.85030   0.01267  Uiso   1.00
H20    H     0.25300   0.47260   0.83560   0.01267  Uiso   1.00
H21    H     0.24130   0.97300   0.88890   0.01267  Uiso   1.00
H22    H     0.31570   0.82630   0.79020   0.01267  Uiso   1.00
H23    H     0.33570   0.76830   0.85030   0.01267  Uiso   1.00
H24    H     0.21960   0.74700   0.83560   0.01267  Uiso   1.00
Ru1    Ru    0.59008   0.52627   0.01113   0.01267  Uiso   1.00
Ru2    Ru    0.93619   0.40992   0.01113   0.01267  Uiso   1.00
Ru3    Ru    0.47373   0.06381   0.01113   0.01267  Uiso   1.00
Ru4    Ru    0.40992   0.47373   0.98887   0.01267  Uiso   1.00
Ru5    Ru    0.06381   0.59008   0.98887   0.01267  Uiso   1.00
Ru6    Ru    0.52627   0.93619   0.98887   0.01267  Uiso   1.00
C1     C     0.42220   0.31430   0.11930   0.01267  Uiso   1.00
C2     C     0.49450   0.29450   0.16500   0.01267  Uiso   1.00
C3     C     0.89210   0.57780   0.11930   0.01267  Uiso   1.00
C4     C     0.80000   0.50550   0.16500   0.01267  Uiso   1.00
C5     C     0.68570   0.10790   0.11930   0.01267  Uiso   1.00
C6     C     0.70550   0.20000   0.16500   0.01267  Uiso   1.00
C7     C     0.57780   0.68570   0.88070   0.01267  Uiso   1.00
C8     C     0.50550   0.70550   0.83500   0.01267  Uiso   1.00
C9     C     0.10790   0.42220   0.88070   0.01267  Uiso   1.00
C10    C     0.20000   0.49450   0.83500   0.01267  Uiso   1.00
C11    C     0.31430   0.89210   0.88070   0.01267  Uiso   1.00
C12    C     0.29450   0.80000   0.83500   0.01267  Uiso   1.00
O1     O     0.55820   0.37060   0.01540   0.01267  Uiso   1.00
O2     O     0.36580   0.31660   0.99127   0.01267  Uiso   1.00
O3     O     0.40890   0.17490   0.02606   0.01267  Uiso   1.00
O4     O     0.56670   0.52670   0.11309   0.01267  Uiso   1.00
O5     O     0.37420   0.47100   0.08671   0.01267  Uiso   1.00
O6     O     0.42660   0.46270   0.20561   0.01267  Uiso   1.00
O7     O     0.31260   0.23790   0.13767   0.01267  Uiso   1.00
O8     O     0.81240   0.44180   0.01540   0.01267  Uiso   1.00
O9     O     0.95080   0.63420   0.99127   0.01267  Uiso   1.00
O10    O     0.76600   0.59110   0.02606   0.01267  Uiso   1.00
O11    O     0.96000   0.43330   0.11309   0.01267  Uiso   1.00
O12    O     0.09680   0.62580   0.08671   0.01267  Uiso   1.00
O13    O     0.03610   0.57340   0.20561   0.01267  Uiso   1.00
O14    O     0.92530   0.68740   0.13767   0.01267  Uiso   1.00
O15    O     0.62940   0.18760   0.01540   0.01267  Uiso   1.00
O16    O     0.68340   0.04920   0.99127   0.01267  Uiso   1.00
O17    O     0.82510   0.23400   0.02606   0.01267  Uiso   1.00
O18    O     0.47330   0.04000   0.11309   0.01267  Uiso   1.00
O19    O     0.52900   0.90320   0.08671   0.01267  Uiso   1.00
O20    O     0.53730   0.96390   0.20561   0.01267  Uiso   1.00
O21    O     0.76210   0.07470   0.13767   0.01267  Uiso   1.00
O22    O     0.44180   0.62940   0.98460   0.01267  Uiso   1.00
O23    O     0.63420   0.68340   0.00873   0.01267  Uiso   1.00
O24    O     0.59110   0.82510   0.97394   0.01267  Uiso   1.00
O25    O     0.43330   0.47330   0.88691   0.01267  Uiso   1.00
O26    O     0.62580   0.52900   0.91329   0.01267  Uiso   1.00
O27    O     0.57340   0.53730   0.79439   0.01267  Uiso   1.00
O28    O     0.68740   0.76210   0.86233   0.01267  Uiso   1.00
O29    O     0.18760   0.55820   0.98460   0.01267  Uiso   1.00
O30    O     0.04920   0.36580   0.00873   0.01267  Uiso   1.00
O31    O     0.23400   0.40890   0.97394   0.01267  Uiso   1.00
O32    O     0.04000   0.56670   0.88691   0.01267  Uiso   1.00
O33    O     0.90320   0.37420   0.91329   0.01267  Uiso   1.00
O34    O     0.96390   0.42660   0.79439   0.01267  Uiso   1.00
O35    O     0.07470   0.31260   0.86233   0.01267  Uiso   1.00
O36    O     0.37060   0.81240   0.98460   0.01267  Uiso   1.00
O37    O     0.31660   0.95080   0.00873   0.01267  Uiso   1.00
O38    O     0.17490   0.76600   0.97394   0.01267  Uiso   1.00
O39    O     0.52670   0.96000   0.88691   0.01267  Uiso   1.00
O40    O     0.47100   0.09680   0.91329   0.01267  Uiso   1.00
O41    O     0.46270   0.03610   0.79439   0.01267  Uiso   1.00
O42    O     0.23790   0.92530   0.86233   0.01267  Uiso   1.00
P13    P     0.85058   0.29110   0.46699   0.01267  Uiso   1.00
P14    P     0.00232   0.45216   0.36678   0.01267  Uiso   1.00
P15    P     0.70890   0.55948   0.46699   0.01267  Uiso   1.00
P16    P     0.54784   0.55016   0.36678   0.01267  Uiso   1.00
P17    P     0.44052   0.14942   0.46699   0.01267  Uiso   1.00
P18    P     0.44984   0.99768   0.36678   0.01267  Uiso   1.00
P19    P     0.14942   0.70890   0.53301   0.01267  Uiso   1.00
P20    P     0.99768   0.54784   0.63322   0.01267  Uiso   1.00
P21    P     0.29110   0.44052   0.53301   0.01267  Uiso   1.00
P22    P     0.45216   0.44984   0.63322   0.01267  Uiso   1.00
P23    P     0.55948   0.85058   0.53301   0.01267  Uiso   1.00
P24    P     0.55016   0.00232   0.63322   0.01267  Uiso   1.00
H25    H     0.97300   0.24130   0.38890   0.01267  Uiso   1.00
H26    H     0.82630   0.31570   0.29020   0.01267  Uiso   1.00
H27    H     0.76830   0.33570   0.35030   0.01267  Uiso   1.00
H28    H     0.74700   0.21960   0.33560   0.01267  Uiso   1.00
H29    H     0.75870   0.73170   0.38890   0.01267  Uiso   1.00
H30    H     0.68430   0.51060   0.29020   0.01267  Uiso   1.00
H31    H     0.66430   0.43260   0.35030   0.01267  Uiso   1.00
H32    H     0.78040   0.52740   0.33560   0.01267  Uiso   1.00
H33    H     0.26830   0.02700   0.38890   0.01267  Uiso   1.00
H34    H     0.48940   0.17370   0.29020   0.01267  Uiso   1.00
H35    H     0.56740   0.23170   0.35030   0.01267  Uiso   1.00
H36    H     0.47260   0.25300   0.33560   0.01267  Uiso   1.00
H37    H     0.02700   0.75870   0.61110   0.01267  Uiso   1.00
H38    H     0.17370   0.68430   0.70980   0.01267  Uiso   1.00
H39    H     0.23170   0.66430   0.64970   0.01267  Uiso   1.00
H40    H     0.25300   0.78040   0.66440   0.01267  Uiso   1.00
H41    H     0.24130   0.26830   0.61110   0.01267  Uiso   1.00
H42    H     0.31570   0.48940   0.70980   0.01267  Uiso   1.00
H43    H     0.33570   0.56740   0.64970   0.01267  Uiso   1.00
H44    H     0.21960   0.47260   0.66440   0.01267  Uiso   1.00
H45    H     0.73170   0.97300   0.61110   0.01267  Uiso   1.00
H46    H     0.51060   0.82630   0.70980   0.01267  Uiso   1.00
H47    H     0.43260   0.76830   0.64970   0.01267  Uiso   1.00
H48    H     0.52740   0.74700   0.66440   0.01267  Uiso   1.00
Ru7    Ru    0.93619   0.52627   0.48887   0.01267  Uiso   1.00
Ru8    Ru    0.47373   0.40992   0.48887   0.01267  Uiso   1.00
Ru9    Ru    0.59008   0.06381   0.48887   0.01267  Uiso   1.00
Ru10   Ru    0.06381   0.47373   0.51113   0.01267  Uiso   1.00
Ru11   Ru    0.52627   0.59008   0.51113   0.01267  Uiso   1.00
Ru12   Ru    0.40992   0.93619   0.51113   0.01267  Uiso   1.00
C13    C     0.89210   0.31430   0.38070   0.01267  Uiso   1.00
C14    C     0.80000   0.29450   0.33500   0.01267  Uiso   1.00
C15    C     0.68570   0.57780   0.38070   0.01267  Uiso   1.00
C16    C     0.70550   0.50550   0.33500   0.01267  Uiso   1.00
C17    C     0.42220   0.10790   0.38070   0.01267  Uiso   1.00
C18    C     0.49450   0.20000   0.33500   0.01267  Uiso   1.00
C19    C     0.10790   0.68570   0.61930   0.01267  Uiso   1.00
C20    C     0.20000   0.70550   0.66500   0.01267  Uiso   1.00
C21    C     0.31430   0.42220   0.61930   0.01267  Uiso   1.00
C22    C     0.29450   0.49450   0.66500   0.01267  Uiso   1.00
C23    C     0.57780   0.89210   0.61930   0.01267  Uiso   1.00
C24    C     0.50550   0.80000   0.66500   0.01267  Uiso   1.00
O43    O     0.81240   0.37060   0.48460   0.01267  Uiso   1.00
O44    O     0.95080   0.31660   0.50873   0.01267  Uiso   1.00
O45    O     0.76600   0.17490   0.47394   0.01267  Uiso   1.00
O46    O     0.96000   0.52670   0.38691   0.01267  Uiso   1.00
O47    O     0.09680   0.47100   0.41329   0.01267  Uiso   1.00
O48    O     0.03610   0.46270   0.29439   0.01267  Uiso   1.00
O49    O     0.92530   0.23790   0.36233   0.01267  Uiso   1.00
O50    O     0.62940   0.44180   0.48460   0.01267  Uiso   1.00
O51    O     0.68340   0.63420   0.50873   0.01267  Uiso   1.00
O52    O     0.82510   0.59110   0.47394   0.01267  Uiso   1.00
O53    O     0.47330   0.43330   0.38691   0.01267  Uiso   1.00
O54    O     0.52900   0.62580   0.41329   0.01267  Uiso   1.00
O55    O     0.53730   0.57340   0.29439   0.01267  Uiso   1.00
O56    O     0.76210   0.68740   0.36233   0.01267  Uiso   1.00
O57    O     0.55820   0.18760   0.48460   0.01267  Uiso   1.00
O58    O     0.36580   0.04920   0.50873   0.01267  Uiso   1.00
O59    O     0.40890   0.23400   0.47394   0.01267  Uiso   1.00
O60    O     0.56670   0.04000   0.38691   0.01267  Uiso   1.00
O61    O     0.37420   0.90320   0.41329   0.01267  Uiso   1.00
O62    O     0.42660   0.96390   0.29439   0.01267  Uiso   1.00
O63    O     0.31260   0.07470   0.36233   0.01267  Uiso   1.00
O64    O     0.18760   0.62940   0.51540   0.01267  Uiso   1.00
O65    O     0.04920   0.68340   0.49127   0.01267  Uiso   1.00
O66    O     0.23400   0.82510   0.52606   0.01267  Uiso   1.00
O67    O     0.04000   0.47330   0.61309   0.01267  Uiso   1.00
O68    O     0.90320   0.52900   0.58671   0.01267  Uiso   1.00
O69    O     0.96390   0.53730   0.70561   0.01267  Uiso   1.00
O70    O     0.07470   0.76210   0.63767   0.01267  Uiso   1.00
O71    O     0.37060   0.55820   0.51540   0.01267  Uiso   1.00
O72    O     0.31660   0.36580   0.49127   0.01267  Uiso   1.00
O73    O     0.17490   0.40890   0.52606   0.01267  Uiso   1.00
O74    O     0.52670   0.56670   0.61309   0.01267  Uiso   1.00
O75    O     0.47100   0.37420   0.58671   0.01267  Uiso   1.00
O76    O     0.46270   0.42660   0.70561   0.01267  Uiso   1.00
O77    O     0.23790   0.31260   0.63767   0.01267  Uiso   1.00
O78    O     0.44180   0.81240   0.51540   0.01267  Uiso   1.00
O79    O     0.63420   0.95080   0.49127   0.01267  Uiso   1.00
O80    O     0.59110   0.76600   0.52606   0.01267  Uiso   1.00
O81    O     0.43330   0.96000   0.61309   0.01267  Uiso   1.00
O82    O     0.62580   0.09680   0.58671   0.01267  Uiso   1.00
O83    O     0.57340   0.03610   0.70561   0.01267  Uiso   1.00
O84    O     0.68740   0.92530   0.63767   0.01267  Uiso   1.00
H49    H     0.14350   0.39960   0.21060   0.01267  Uiso   1.00
H50    H     0.18450   0.32580   0.18110   0.01267  Uiso   1.00
H51    H     0.98630   0.25360   0.24040   0.01267  Uiso   1.00
H52    H     0.02740   0.17770   0.21450   0.01267  Uiso   1.00
H53    H     0.92290   0.18870   0.13350   0.01267  Uiso   1.00
H54    H     0.03170   0.24490   0.10720   0.01267  Uiso   1.00
H55    H     0.98330   0.30540   0.13290   0.01267  Uiso   1.00
H56    H     0.25610   0.39960   0.28940   0.01267  Uiso   1.00
H57    H     0.14130   0.32580   0.31890   0.01267  Uiso   1.00
H58    H     0.26730   0.25360   0.25960   0.01267  Uiso   1.00
H59    H     0.15030   0.17770   0.28550   0.01267  Uiso   1.00
H60    H     0.26580   0.18870   0.36650   0.01267  Uiso   1.00
H61    H     0.21320   0.24490   0.39280   0.01267  Uiso   1.00
H62    H     0.32210   0.30540   0.36710   0.01267  Uiso   1.00
C25    C     0.14080   0.33130   0.21610   0.01267  Uiso   1.00
C26    C     0.03130   0.24620   0.20710   0.01267  Uiso   1.00
C27    C     0.19050   0.33130   0.28390   0.01267  Uiso   1.00
C28    C     0.21490   0.24620   0.29290   0.01267  Uiso   1.00
N1     N     0.98780   0.24630   0.13807   0.01267  Uiso   1.00
N2     N     0.25850   0.24630   0.36193   0.01267  Uiso   1.00
H63    H     0.25610   0.85650   0.21060   0.01267  Uiso   1.00
H64    H     0.14130   0.81550   0.18110   0.01267  Uiso   1.00
H65    H     0.26730   0.01370   0.24040   0.01267  Uiso   1.00
H66    H     0.15030   0.97260   0.21450   0.01267  Uiso   1.00
H67    H     0.26580   0.07710   0.13350   0.01267  Uiso   1.00
H68    H     0.21320   0.96830   0.10720   0.01267  Uiso   1.00
H69    H     0.32210   0.01670   0.13290   0.01267  Uiso   1.00
H70    H     0.14350   0.74390   0.28940   0.01267  Uiso   1.00
H71    H     0.18450   0.85870   0.31890   0.01267  Uiso   1.00
H72    H     0.98630   0.73270   0.25960   0.01267  Uiso   1.00
H73    H     0.02740   0.84970   0.28550   0.01267  Uiso   1.00
H74    H     0.92290   0.73420   0.36650   0.01267  Uiso   1.00
H75    H     0.03170   0.78680   0.39280   0.01267  Uiso   1.00
H76    H     0.98330   0.67790   0.36710   0.01267  Uiso   1.00
C29    C     0.19050   0.85920   0.21610   0.01267  Uiso   1.00
C30    C     0.21490   0.96870   0.20710   0.01267  Uiso   1.00
C31    C     0.14080   0.80950   0.28390   0.01267  Uiso   1.00
C32    C     0.03130   0.78510   0.29290   0.01267  Uiso   1.00
N3     N     0.25850   0.01220   0.13807   0.01267  Uiso   1.00
N4     N     0.98780   0.74150   0.36193   0.01267  Uiso   1.00
H77    H     0.60040   0.74390   0.21060   0.01267  Uiso   1.00
H78    H     0.67420   0.85870   0.18110   0.01267  Uiso   1.00
H79    H     0.74640   0.73270   0.24040   0.01267  Uiso   1.00
H80    H     0.82230   0.84970   0.21450   0.01267  Uiso   1.00
H81    H     0.81130   0.73420   0.13350   0.01267  Uiso   1.00
H82    H     0.75510   0.78680   0.10720   0.01267  Uiso   1.00
H83    H     0.69460   0.67790   0.13290   0.01267  Uiso   1.00
H84    H     0.60040   0.85650   0.28940   0.01267  Uiso   1.00
H85    H     0.67420   0.81550   0.31890   0.01267  Uiso   1.00
H86    H     0.74640   0.01370   0.25960   0.01267  Uiso   1.00
H87    H     0.82230   0.97260   0.28550   0.01267  Uiso   1.00
H88    H     0.81130   0.07710   0.36650   0.01267  Uiso   1.00
H89    H     0.75510   0.96830   0.39280   0.01267  Uiso   1.00
H90    H     0.69460   0.01670   0.36710   0.01267  Uiso   1.00
C33    C     0.66870   0.80950   0.21610   0.01267  Uiso   1.00
C34    C     0.75380   0.78510   0.20710   0.01267  Uiso   1.00
C35    C     0.66870   0.85920   0.28390   0.01267  Uiso   1.00
C36    C     0.75380   0.96870   0.29290   0.01267  Uiso   1.00
N5     N     0.75370   0.74150   0.13807   0.01267  Uiso   1.00
N6     N     0.75370   0.01220   0.36193   0.01267  Uiso   1.00
H91    H     0.85650   0.60040   0.78940   0.01267  Uiso   1.00
H92    H     0.81550   0.67420   0.81890   0.01267  Uiso   1.00
H93    H     0.01370   0.74640   0.75960   0.01267  Uiso   1.00
H94    H     0.97260   0.82230   0.78550   0.01267  Uiso   1.00
H95    H     0.07710   0.81130   0.86650   0.01267  Uiso   1.00
H96    H     0.96830   0.75510   0.89280   0.01267  Uiso   1.00
H97    H     0.01670   0.69460   0.86710   0.01267  Uiso   1.00
H98    H     0.74390   0.60040   0.71060   0.01267  Uiso   1.00
H99    H     0.85870   0.67420   0.68110   0.01267  Uiso   1.00
H100   H     0.73270   0.74640   0.74040   0.01267  Uiso   1.00
H101   H     0.84970   0.82230   0.71450   0.01267  Uiso   1.00
H102   H     0.73420   0.81130   0.63350   0.01267  Uiso   1.00
H103   H     0.78680   0.75510   0.60720   0.01267  Uiso   1.00
H104   H     0.67790   0.69460   0.63290   0.01267  Uiso   1.00
C37    C     0.85920   0.66870   0.78390   0.01267  Uiso   1.00
C38    C     0.96870   0.75380   0.79290   0.01267  Uiso   1.00
C39    C     0.80950   0.66870   0.71610   0.01267  Uiso   1.00
C40    C     0.78510   0.75380   0.70710   0.01267  Uiso   1.00
N7     N     0.01220   0.75370   0.86193   0.01267  Uiso   1.00
N8     N     0.74150   0.75370   0.63807   0.01267  Uiso   1.00
H105   H     0.74390   0.14350   0.78940   0.01267  Uiso   1.00
H106   H     0.85870   0.18450   0.81890   0.01267  Uiso   1.00
H107   H     0.73270   0.98630   0.75960   0.01267  Uiso   1.00
H108   H     0.84970   0.02740   0.78550   0.01267  Uiso   1.00
H109   H     0.73420   0.92290   0.86650   0.01267  Uiso   1.00
H110   H     0.78680   0.03170   0.89280   0.01267  Uiso   1.00
H111   H     0.67790   0.98330   0.86710   0.01267  Uiso   1.00
H112   H     0.85650   0.25610   0.71060   0.01267  Uiso   1.00
H113   H     0.81550   0.14130   0.68110   0.01267  Uiso   1.00
H114   H     0.01370   0.26730   0.74040   0.01267  Uiso   1.00
H115   H     0.97260   0.15030   0.71450   0.01267  Uiso   1.00
H116   H     0.07710   0.26580   0.63350   0.01267  Uiso   1.00
H117   H     0.96830   0.21320   0.60720   0.01267  Uiso   1.00
H118   H     0.01670   0.32210   0.63290   0.01267  Uiso   1.00
C41    C     0.80950   0.14080   0.78390   0.01267  Uiso   1.00
C42    C     0.78510   0.03130   0.79290   0.01267  Uiso   1.00
C43    C     0.85920   0.19050   0.71610   0.01267  Uiso   1.00
C44    C     0.96870   0.21490   0.70710   0.01267  Uiso   1.00
N9     N     0.74150   0.98780   0.86193   0.01267  Uiso   1.00
N10    N     0.01220   0.25850   0.63807   0.01267  Uiso   1.00
H119   H     0.39960   0.25610   0.78940   0.01267  Uiso   1.00
H120   H     0.32580   0.14130   0.81890   0.01267  Uiso   1.00
H121   H     0.25360   0.26730   0.75960   0.01267  Uiso   1.00
H122   H     0.17770   0.15030   0.78550   0.01267  Uiso   1.00
H123   H     0.18870   0.26580   0.86650   0.01267  Uiso   1.00
H124   H     0.24490   0.21320   0.89280   0.01267  Uiso   1.00
H125   H     0.30540   0.32210   0.86710   0.01267  Uiso   1.00
H126   H     0.39960   0.14350   0.71060   0.01267  Uiso   1.00
H127   H     0.32580   0.18450   0.68110   0.01267  Uiso   1.00
H128   H     0.25360   0.98630   0.74040   0.01267  Uiso   1.00
H129   H     0.17770   0.02740   0.71450   0.01267  Uiso   1.00
H130   H     0.18870   0.92290   0.63350   0.01267  Uiso   1.00
H131   H     0.24490   0.03170   0.60720   0.01267  Uiso   1.00
H132   H     0.30540   0.98330   0.63290   0.01267  Uiso   1.00
C45    C     0.33130   0.19050   0.78390   0.01267  Uiso   1.00
C46    C     0.24620   0.21490   0.79290   0.01267  Uiso   1.00
C47    C     0.33130   0.14080   0.71610   0.01267  Uiso   1.00
C48    C     0.24620   0.03130   0.70710   0.01267  Uiso   1.00
N11    N     0.24630   0.25850   0.86193   0.01267  Uiso   1.00
N12    N     0.24630   0.98780   0.63807   0.01267  Uiso   1.00
