data_CAZNIC_charged
_audit_creation_date              2014-07-02
_audit_creation_method            'Materials Studio'
_symmetry_space_group_name_H-M    'P1'
_symmetry_Int_Tables_number       1
_symmetry_cell_setting            triclinic
loop_
_symmetry_equiv_pos_as_xyz
  x,y,z
_cell_length_a                    9.3592
_cell_length_b                    15.4880
_cell_length_c                    16.1080
_cell_angle_alpha                 78.2170
_cell_angle_beta                  78.1330
_cell_angle_gamma                 84.1600
loop_
_atom_site_label
_atom_site_type_symbol
_atom_site_fract_x
_atom_site_fract_y
_atom_site_fract_z
_atom_site_U_iso_or_equiv
_atom_site_adp_type
_atom_site_occupancy
Cd1    Cd    0.90936   0.28231   0.05520   0.01267  Uiso   1.00
Cd2    Cd    0.56095   0.36831   0.12321   0.01267  Uiso   1.00
Cd3    Cd    0.15358   0.40200   0.18747   0.01267  Uiso   1.00
H1     H     0.65620   0.96590   0.81340   0.01267  Uiso   1.00
H2     H     0.67330   0.89510   0.75380   0.01267  Uiso   1.00
H3     H     0.40260   0.99790   0.62980   0.01267  Uiso   1.00
H4     H     0.35380   0.93510   0.71910   0.01267  Uiso   1.00
H5     H     0.71050   0.99820   0.61820   0.01267  Uiso   1.00
H6     H     0.72460   0.06560   0.67680   0.01267  Uiso   1.00
H7     H     0.35580   0.04550   0.80020   0.01267  Uiso   1.00
H8     H     0.40460   0.11810   0.71810   0.01267  Uiso   1.00
H9     H     0.38350   0.79090   0.67420   0.01267  Uiso   1.00
H10    H     0.36780   0.85730   0.58790   0.01267  Uiso   1.00
H11    H     0.40050   0.75120   0.49450   0.01267  Uiso   1.00
H12    H     0.38470   0.68050   0.58070   0.01267  Uiso   1.00
H13    H     0.70810   0.78830   0.46200   0.01267  Uiso   1.00
H14    H     0.70140   0.85840   0.52150   0.01267  Uiso   1.00
H15    H     0.69380   0.74460   0.65160   0.01267  Uiso   1.00
H16    H     0.71630   0.67570   0.58960   0.01267  Uiso   1.00
H17    H     0.42350   0.53440   0.80400   0.01267  Uiso   1.00
H18    H     0.69970   0.55030   0.39860   0.01267  Uiso   1.00
H19    H     0.80940   0.93680   0.39360   0.01267  Uiso   1.00
H20    H     0.87710   0.05990   0.28960   0.01267  Uiso   1.00
H21    H     0.88220   0.09460   0.54920   0.01267  Uiso   1.00
H22    H     0.06950   0.73790   0.08070   0.01267  Uiso   1.00
H23    H     0.07640   0.60450   0.89380   0.01267  Uiso   1.00
H24    H     0.04150   0.71250   0.70020   0.01267  Uiso   1.00
H25    H     0.04780   0.97710   0.64410   0.01267  Uiso   1.00
H26    H     0.99750   0.94880   0.04640   0.01267  Uiso   1.00
H27    H     0.82450   0.61920   0.70670   0.01267  Uiso   1.00
H28    H     0.91880   0.51410   0.80840   0.01267  Uiso   1.00
H29    H     0.51860   0.21590   0.03360   0.01267  Uiso   1.00
H30    H     0.17420   0.28250   0.91870   0.01267  Uiso   1.00
H31    H     0.62070   0.13520   0.92970   0.01267  Uiso   1.00
H32    H     0.10200   0.47600   0.98900   0.01267  Uiso   1.00
H33    H     0.96390   0.08810   0.81780   0.01267  Uiso   1.00
H34    H     0.93350   0.21060   0.87440   0.01267  Uiso   1.00
H35    H     0.27320   0.19520   0.82130   0.01267  Uiso   1.00
H36    H     0.68150   0.31490   0.36250   0.01267  Uiso   1.00
H37    H     0.04280   0.71680   0.55870   0.01267  Uiso   1.00
H38    H     0.45620   0.12720   0.28250   0.01267  Uiso   1.00
H39    H     0.39190   0.99780   0.37780   0.01267  Uiso   1.00
H40    H     0.62510   0.46910   0.31320   0.01267  Uiso   1.00
H41    H     0.53710   0.23250   0.47990   0.01267  Uiso   1.00
H42    H     0.02480   0.16950   0.42840   0.01267  Uiso   1.00
H43    H     0.11510   0.60520   0.16850   0.01267  Uiso   1.00
H44    H     0.05050   0.96960   0.50950   0.01267  Uiso   1.00
H45    H     0.94310   0.07110   0.10100   0.01267  Uiso   1.00
H46    H     0.73210   0.82780   0.89160   0.01267  Uiso   1.00
H47    H     0.78370   0.68920   0.96040   0.01267  Uiso   1.00
H48    H     0.39670   0.62340   0.97030   0.01267  Uiso   1.00
H49    H     0.33670   0.76230   0.90050   0.01267  Uiso   1.00
H50    H     0.21880   0.56880   0.36940   0.01267  Uiso   1.00
H51    H     0.51340   0.43010   0.90740   0.01267  Uiso   1.00
H52    H     0.28870   0.65330   0.45570   0.01267  Uiso   1.00
C1     C     0.53130   0.00270   0.71670   0.01267  Uiso   1.00
C2     C     0.60430   0.93560   0.78280   0.01267  Uiso   1.00
C3     C     0.43780   0.95680   0.67640   0.01267  Uiso   1.00
C4     C     0.65750   0.04280   0.64920   0.01267  Uiso   1.00
C5     C     0.43980   0.07160   0.76070   0.01267  Uiso   1.00
C6     C     0.43720   0.82580   0.62230   0.01267  Uiso   1.00
C7     C     0.54450   0.76650   0.57100   0.01267  Uiso   1.00
C8     C     0.45420   0.71270   0.53450   0.01267  Uiso   1.00
C9     C     0.64300   0.82420   0.49840   0.01267  Uiso   1.00
C10    C     0.64370   0.70890   0.62500   0.01267  Uiso   1.00
C11    C     0.61650   0.58950   0.74660   0.01267  Uiso   1.00
C12    C     0.52260   0.53050   0.80600   0.01267  Uiso   1.00
C13    C     0.60170   0.55310   0.39430   0.01267  Uiso   1.00
C14    C     0.59700   0.95370   0.39320   0.01267  Uiso   1.00
C15    C     0.73830   0.97350   0.36880   0.01267  Uiso   1.00
C16    C     0.77910   0.04750   0.30740   0.01267  Uiso   1.00
C17    C     0.52800   0.80950   0.88920   0.01267  Uiso   1.00
C18    C     0.69330   0.15640   0.52520   0.01267  Uiso   1.00
C19    C     0.83980   0.13820   0.51110   0.01267  Uiso   1.00
C20    C     0.01230   0.91890   0.89430   0.01267  Uiso   1.00
C21    C     0.03710   0.84570   0.78310   0.01267  Uiso   1.00
C22    C     0.05100   0.77000   0.91630   0.01267  Uiso   1.00
C23    C     0.07170   0.68700   0.97550   0.01267  Uiso   1.00
C24    C     0.07940   0.68560   0.05950   0.01267  Uiso   1.00
C25    C     0.08110   0.60650   0.95050   0.01267  Uiso   1.00
C26    C     0.04020   0.84530   0.69010   0.01267  Uiso   1.00
C27    C     0.04180   0.76630   0.66180   0.01267  Uiso   1.00
C28    C     0.04580   0.92250   0.62870   0.01267  Uiso   1.00
C29    C     0.98310   0.00190   0.00920   0.01267  Uiso   1.00
C30    C     0.99080   0.00100   0.92580   0.01267  Uiso   1.00
C31    C     0.96820   0.30600   0.31210   0.01267  Uiso   1.00
C32    C     0.87170   0.25190   0.38500   0.01267  Uiso   1.00
C33    C     0.26320   0.30530   0.05720   0.01267  Uiso   1.00
C34    C     0.33040   0.25440   0.99050   0.01267  Uiso   1.00
C35    C     0.78760   0.38950   0.93150   0.01267  Uiso   1.00
C36    C     0.72820   0.45890   0.86700   0.01267  Uiso   1.00
C37    C     0.76230   0.58140   0.74720   0.01267  Uiso   1.00
C38    C     0.81930   0.51770   0.80760   0.01267  Uiso   1.00
C39    C     0.67260   0.10270   0.27290   0.01267  Uiso   1.00
C40    C     0.46760   0.21170   0.99080   0.01267  Uiso   1.00
C41    C     0.62360   0.56190   0.04160   0.01267  Uiso   1.00
C42    C     0.26260   0.25040   0.92340   0.01267  Uiso   1.00
C43    C     0.52850   0.16380   0.92900   0.01267  Uiso   1.00
C44    C     0.71490   0.18250   0.20310   0.01267  Uiso   1.00
C45    C     0.09740   0.52950   0.00740   0.01267  Uiso   1.00
C46    C     0.96650   0.08350   0.87600   0.01267  Uiso   1.00
C47    C     0.94680   0.15660   0.91050   0.01267  Uiso   1.00
C48    C     0.45490   0.15770   0.86680   0.01267  Uiso   1.00
C49    C     0.32320   0.20020   0.86420   0.01267  Uiso   1.00
C50    C     0.58580   0.64840   0.98890   0.01267  Uiso   1.00
C51    C     0.72390   0.27010   0.39940   0.01267  Uiso   1.00
C52    C     0.36660   0.45860   0.27620   0.01267  Uiso   1.00
C53    C     0.04390   0.76930   0.57810   0.01267  Uiso   1.00
C54    C     0.52820   0.08680   0.30210   0.01267  Uiso   1.00
C55    C     0.48960   0.01080   0.36040   0.01267  Uiso   1.00
C56    C     0.49660   0.60710   0.44170   0.01267  Uiso   1.00
C57    C     0.55680   0.50560   0.34270   0.01267  Uiso   1.00
C58    C     0.41900   0.51010   0.33360   0.01267  Uiso   1.00
C59    C     0.63780   0.22030   0.47050   0.01267  Uiso   1.00
C60    C     0.92510   0.18500   0.43960   0.01267  Uiso   1.00
C61    C     0.10230   0.60500   0.11280   0.01267  Uiso   1.00
C62    C     0.04810   0.91670   0.54930   0.01267  Uiso   1.00
C63    C     0.95570   0.07560   0.04150   0.01267  Uiso   1.00
C64    C     0.65980   0.78740   0.90870   0.01267  Uiso   1.00
C65    C     0.68790   0.70600   0.95370   0.01267  Uiso   1.00
C66    C     0.46290   0.66700   0.95970   0.01267  Uiso   1.00
C67    C     0.42930   0.74900   0.91410   0.01267  Uiso   1.00
C68    C     0.31560   0.56520   0.37630   0.01267  Uiso   1.00
C69    C     0.57640   0.46730   0.86670   0.01267  Uiso   1.00
C70    C     0.35700   0.61470   0.42900   0.01267  Uiso   1.00
N1     N     0.05100   0.76830   0.83590   0.01267  Uiso   1.00
N2     N     0.01530   0.92210   0.80860   0.01267  Uiso   1.00
N3     N     0.03000   0.84460   0.94890   0.01267  Uiso   1.00
N4     N     0.10680   0.52920   0.08930   0.01267  Uiso   1.00
N5     N     0.04760   0.84700   0.52020   0.01267  Uiso   1.00
N6     N     0.94520   0.15660   0.99200   0.01267  Uiso   1.00
O1     O     0.52070   0.88600   0.64420   0.01267  Uiso   1.00
O2     O     0.80020   0.39430   0.13260   0.01267  Uiso   1.00
O3     O     0.48900   0.88850   0.84170   0.01267  Uiso   1.00
O4     O     0.59900   0.11160   0.59180   0.01267  Uiso   1.00
O5     O     0.55120   0.64980   0.69030   0.01267  Uiso   1.00
O6     O     0.55210   0.65310   0.49140   0.01267  Uiso   1.00
O7     O     0.54570   0.88130   0.45030   0.01267  Uiso   1.00
O8     O     0.52500   0.10690   0.80620   0.01267  Uiso   1.00
O9     O     0.09830   0.28110   0.29230   0.01267  Uiso   1.00
O10    O     0.91900   0.37610   0.27100   0.01267  Uiso   1.00
O11    O     0.84770   0.19490   0.18140   0.01267  Uiso   1.00
O12    O     0.92410   0.38040   0.92660   0.01267  Uiso   1.00
O13    O     0.70360   0.34360   0.98970   0.01267  Uiso   1.00
O14    O     0.34080   0.33500   0.09950   0.01267  Uiso   1.00
O15    O     0.52470   0.50690   0.06450   0.01267  Uiso   1.00
O16    O     0.74770   0.54760   0.05770   0.01267  Uiso   1.00
O17    O     0.24290   0.48030   0.26040   0.01267  Uiso   1.00
O18    O     0.12630   0.32090   0.07370   0.01267  Uiso   1.00
O19    O     0.61270   0.22720   0.17280   0.01267  Uiso   1.00
O20    O     0.45620   0.39750   0.25120   0.01267  Uiso   1.00
