data_CEHKUW_clean
_audit_creation_date              2014-07-02
_audit_creation_method            'Materials Studio'
_symmetry_space_group_name_H-M    'P1'
_symmetry_Int_Tables_number       1
_symmetry_cell_setting            triclinic
loop_
_symmetry_equiv_pos_as_xyz
  x,y,z
_cell_length_a                    10.3503
_cell_length_b                    10.3503
_cell_length_c                    52.5570
_cell_angle_alpha                 90.0000
_cell_angle_beta                  90.0000
_cell_angle_gamma                 90.0000
loop_
_atom_site_label
_atom_site_type_symbol
_atom_site_fract_x
_atom_site_fract_y
_atom_site_fract_z
_atom_site_U_iso_or_equiv
_atom_site_adp_type
_atom_site_occupancy
Cd1    Cd    0.64155   0.94028   0.97639   0.01267  Uiso   1.00
Cd2    Cd    0.85467   0.75707   0.17117   0.01267  Uiso   1.00
Cd3    Cd    0.35845   0.05972   0.47639   0.01267  Uiso   1.00
Cd4    Cd    0.14533   0.24293   0.67117   0.01267  Uiso   1.00
Cd5    Cd    0.05972   0.64155   0.22639   0.01267  Uiso   1.00
Cd6    Cd    0.24293   0.85467   0.42117   0.01267  Uiso   1.00
Cd7    Cd    0.94028   0.35845   0.72639   0.01267  Uiso   1.00
Cd8    Cd    0.75707   0.14533   0.92117   0.01267  Uiso   1.00
Cd9    Cd    0.35845   0.94028   0.02361   0.01267  Uiso   1.00
Cd10   Cd    0.14533   0.75707   0.82883   0.01267  Uiso   1.00
Cd11   Cd    0.64155   0.05972   0.52361   0.01267  Uiso   1.00
Cd12   Cd    0.85467   0.24293   0.32883   0.01267  Uiso   1.00
Cd13   Cd    0.94028   0.64155   0.77361   0.01267  Uiso   1.00
Cd14   Cd    0.75707   0.85467   0.57883   0.01267  Uiso   1.00
Cd15   Cd    0.05972   0.35845   0.27361   0.01267  Uiso   1.00
Cd16   Cd    0.24293   0.14533   0.07883   0.01267  Uiso   1.00
H1     H     0.66410   0.88010   0.08690   0.01267  Uiso   1.00
H2     H     0.05110   0.87290   0.09270   0.01267  Uiso   1.00
H3     H     0.88270   0.94550   0.02510   0.01267  Uiso   1.00
H4     H     0.60690   0.52090   0.96840   0.01267  Uiso   1.00
H5     H     0.33590   0.11990   0.58690   0.01267  Uiso   1.00
H6     H     0.94890   0.12710   0.59270   0.01267  Uiso   1.00
H7     H     0.11730   0.05450   0.52510   0.01267  Uiso   1.00
H8     H     0.39310   0.47910   0.46840   0.01267  Uiso   1.00
H9     H     0.11990   0.66410   0.33690   0.01267  Uiso   1.00
H10    H     0.12710   0.05110   0.34270   0.01267  Uiso   1.00
H11    H     0.05450   0.88270   0.27510   0.01267  Uiso   1.00
H12    H     0.47910   0.60690   0.21840   0.01267  Uiso   1.00
H13    H     0.88010   0.33590   0.83690   0.01267  Uiso   1.00
H14    H     0.87290   0.94890   0.84270   0.01267  Uiso   1.00
H15    H     0.94550   0.11730   0.77510   0.01267  Uiso   1.00
H16    H     0.52090   0.39310   0.71840   0.01267  Uiso   1.00
H17    H     0.33590   0.88010   0.91310   0.01267  Uiso   1.00
H18    H     0.94890   0.87290   0.90730   0.01267  Uiso   1.00
H19    H     0.11730   0.94550   0.97490   0.01267  Uiso   1.00
H20    H     0.39310   0.52090   0.03160   0.01267  Uiso   1.00
H21    H     0.66410   0.11990   0.41310   0.01267  Uiso   1.00
H22    H     0.05110   0.12710   0.40730   0.01267  Uiso   1.00
H23    H     0.88270   0.05450   0.47490   0.01267  Uiso   1.00
H24    H     0.60690   0.47910   0.53160   0.01267  Uiso   1.00
H25    H     0.88010   0.66410   0.66310   0.01267  Uiso   1.00
H26    H     0.87290   0.05110   0.65730   0.01267  Uiso   1.00
H27    H     0.94550   0.88270   0.72490   0.01267  Uiso   1.00
H28    H     0.52090   0.60690   0.78160   0.01267  Uiso   1.00
H29    H     0.11990   0.33590   0.16310   0.01267  Uiso   1.00
H30    H     0.12710   0.94890   0.15730   0.01267  Uiso   1.00
H31    H     0.05450   0.11730   0.22490   0.01267  Uiso   1.00
H32    H     0.47910   0.39310   0.28160   0.01267  Uiso   1.00
H33    H     0.50000   0.18410   0.00000   0.01267  Uiso   1.00
H34    H     0.50000   0.81590   0.50000   0.01267  Uiso   1.00
H35    H     0.81590   0.50000   0.25000   0.01267  Uiso   1.00
H36    H     0.18410   0.50000   0.75000   0.01267  Uiso   1.00
C1     C     0.63180   0.94930   0.03949   0.01267  Uiso   1.00
C2     C     0.75510   0.91980   0.05405   0.01267  Uiso   1.00
C3     C     0.74520   0.88830   0.07941   0.01267  Uiso   1.00
C4     C     0.85770   0.86800   0.09429   0.01267  Uiso   1.00
C5     C     0.97670   0.88150   0.08296   0.01267  Uiso   1.00
C6     C     0.98750   0.90800   0.05699   0.01267  Uiso   1.00
C7     C     0.87620   0.92750   0.04242   0.01267  Uiso   1.00
C8     C     0.84790   0.83340   0.12208   0.01267  Uiso   1.00
C9     C     0.11790   0.91950   0.04559   0.01267  Uiso   1.00
C10    C     0.63410   0.27030   0.96013   0.01267  Uiso   1.00
C11    C     0.56640   0.34220   0.98115   0.01267  Uiso   1.00
C12    C     0.56440   0.47550   0.98121   0.01267  Uiso   1.00
C13    C     0.36820   0.05070   0.53949   0.01267  Uiso   1.00
C14    C     0.24490   0.08020   0.55405   0.01267  Uiso   1.00
C15    C     0.25480   0.11170   0.57941   0.01267  Uiso   1.00
C16    C     0.14230   0.13200   0.59429   0.01267  Uiso   1.00
C17    C     0.02330   0.11850   0.58296   0.01267  Uiso   1.00
C18    C     0.01250   0.09200   0.55699   0.01267  Uiso   1.00
C19    C     0.12380   0.07250   0.54242   0.01267  Uiso   1.00
C20    C     0.15210   0.16660   0.62208   0.01267  Uiso   1.00
C21    C     0.88210   0.08050   0.54559   0.01267  Uiso   1.00
C22    C     0.36590   0.72970   0.46013   0.01267  Uiso   1.00
C23    C     0.43360   0.65780   0.48115   0.01267  Uiso   1.00
C24    C     0.43560   0.52450   0.48121   0.01267  Uiso   1.00
C25    C     0.05070   0.63180   0.28949   0.01267  Uiso   1.00
C26    C     0.08020   0.75510   0.30405   0.01267  Uiso   1.00
C27    C     0.11170   0.74520   0.32941   0.01267  Uiso   1.00
C28    C     0.13200   0.85770   0.34429   0.01267  Uiso   1.00
C29    C     0.11850   0.97670   0.33296   0.01267  Uiso   1.00
C30    C     0.09200   0.98750   0.30699   0.01267  Uiso   1.00
C31    C     0.07250   0.87620   0.29242   0.01267  Uiso   1.00
C32    C     0.16660   0.84790   0.37208   0.01267  Uiso   1.00
C33    C     0.08050   0.11790   0.29559   0.01267  Uiso   1.00
C34    C     0.72970   0.63410   0.21013   0.01267  Uiso   1.00
C35    C     0.65780   0.56640   0.23115   0.01267  Uiso   1.00
C36    C     0.52450   0.56440   0.23121   0.01267  Uiso   1.00
C37    C     0.94930   0.36820   0.78949   0.01267  Uiso   1.00
C38    C     0.91980   0.24490   0.80405   0.01267  Uiso   1.00
C39    C     0.88830   0.25480   0.82941   0.01267  Uiso   1.00
C40    C     0.86800   0.14230   0.84429   0.01267  Uiso   1.00
C41    C     0.88150   0.02330   0.83296   0.01267  Uiso   1.00
C42    C     0.90800   0.01250   0.80699   0.01267  Uiso   1.00
C43    C     0.92750   0.12380   0.79242   0.01267  Uiso   1.00
C44    C     0.83340   0.15210   0.87208   0.01267  Uiso   1.00
C45    C     0.91950   0.88210   0.79559   0.01267  Uiso   1.00
C46    C     0.27030   0.36590   0.71013   0.01267  Uiso   1.00
C47    C     0.34220   0.43360   0.73115   0.01267  Uiso   1.00
C48    C     0.47550   0.43560   0.73121   0.01267  Uiso   1.00
C49    C     0.36820   0.94930   0.96051   0.01267  Uiso   1.00
C50    C     0.24490   0.91980   0.94595   0.01267  Uiso   1.00
C51    C     0.25480   0.88830   0.92059   0.01267  Uiso   1.00
C52    C     0.14230   0.86800   0.90571   0.01267  Uiso   1.00
C53    C     0.02330   0.88150   0.91704   0.01267  Uiso   1.00
C54    C     0.01250   0.90800   0.94301   0.01267  Uiso   1.00
C55    C     0.12380   0.92750   0.95758   0.01267  Uiso   1.00
C56    C     0.15210   0.83340   0.87792   0.01267  Uiso   1.00
C57    C     0.88210   0.91950   0.95441   0.01267  Uiso   1.00
C58    C     0.36590   0.27030   0.03987   0.01267  Uiso   1.00
C59    C     0.43360   0.34220   0.01885   0.01267  Uiso   1.00
C60    C     0.43560   0.47550   0.01879   0.01267  Uiso   1.00
C61    C     0.63180   0.05070   0.46051   0.01267  Uiso   1.00
C62    C     0.75510   0.08020   0.44595   0.01267  Uiso   1.00
C63    C     0.74520   0.11170   0.42059   0.01267  Uiso   1.00
C64    C     0.85770   0.13200   0.40571   0.01267  Uiso   1.00
C65    C     0.97670   0.11850   0.41704   0.01267  Uiso   1.00
C66    C     0.98750   0.09200   0.44301   0.01267  Uiso   1.00
C67    C     0.87620   0.07250   0.45758   0.01267  Uiso   1.00
C68    C     0.84790   0.16660   0.37792   0.01267  Uiso   1.00
C69    C     0.11790   0.08050   0.45441   0.01267  Uiso   1.00
C70    C     0.63410   0.72970   0.53987   0.01267  Uiso   1.00
C71    C     0.56640   0.65780   0.51885   0.01267  Uiso   1.00
C72    C     0.56440   0.52450   0.51879   0.01267  Uiso   1.00
C73    C     0.94930   0.63180   0.71051   0.01267  Uiso   1.00
C74    C     0.91980   0.75510   0.69595   0.01267  Uiso   1.00
C75    C     0.88830   0.74520   0.67059   0.01267  Uiso   1.00
C76    C     0.86800   0.85770   0.65571   0.01267  Uiso   1.00
C77    C     0.88150   0.97670   0.66704   0.01267  Uiso   1.00
C78    C     0.90800   0.98750   0.69301   0.01267  Uiso   1.00
C79    C     0.92750   0.87620   0.70758   0.01267  Uiso   1.00
C80    C     0.83340   0.84790   0.62792   0.01267  Uiso   1.00
C81    C     0.91950   0.11790   0.70441   0.01267  Uiso   1.00
C82    C     0.27030   0.63410   0.78987   0.01267  Uiso   1.00
C83    C     0.34220   0.56640   0.76885   0.01267  Uiso   1.00
C84    C     0.47550   0.56440   0.76879   0.01267  Uiso   1.00
C85    C     0.05070   0.36820   0.21051   0.01267  Uiso   1.00
C86    C     0.08020   0.24490   0.19595   0.01267  Uiso   1.00
C87    C     0.11170   0.25480   0.17059   0.01267  Uiso   1.00
C88    C     0.13200   0.14230   0.15571   0.01267  Uiso   1.00
C89    C     0.11850   0.02330   0.16704   0.01267  Uiso   1.00
C90    C     0.09200   0.01250   0.19301   0.01267  Uiso   1.00
C91    C     0.07250   0.12380   0.20758   0.01267  Uiso   1.00
C92    C     0.16660   0.15210   0.12792   0.01267  Uiso   1.00
C93    C     0.08050   0.88210   0.20441   0.01267  Uiso   1.00
C94    C     0.72970   0.36590   0.28987   0.01267  Uiso   1.00
C95    C     0.65780   0.43360   0.26885   0.01267  Uiso   1.00
C96    C     0.52450   0.43560   0.26879   0.01267  Uiso   1.00
C97    C     0.50000   0.27400   0.00000   0.01267  Uiso   1.00
C98    C     0.50000   0.54160   0.00000   0.01267  Uiso   1.00
C99    C     0.50000   0.68900   0.00000   0.01267  Uiso   1.00
C100   C     0.50000   0.72600   0.50000   0.01267  Uiso   1.00
C101   C     0.50000   0.45840   0.50000   0.01267  Uiso   1.00
C102   C     0.50000   0.31100   0.50000   0.01267  Uiso   1.00
C103   C     0.72600   0.50000   0.25000   0.01267  Uiso   1.00
C104   C     0.45840   0.50000   0.25000   0.01267  Uiso   1.00
C105   C     0.31100   0.50000   0.25000   0.01267  Uiso   1.00
C106   C     0.27400   0.50000   0.75000   0.01267  Uiso   1.00
C107   C     0.54160   0.50000   0.75000   0.01267  Uiso   1.00
C108   C     0.68900   0.50000   0.75000   0.01267  Uiso   1.00
O1     O     0.64050   0.99630   0.01767   0.01267  Uiso   1.00
O2     O     0.52860   0.92820   0.05044   0.01267  Uiso   1.00
O3     O     0.74200   0.81640   0.13210   0.01267  Uiso   1.00
O4     O     0.94840   0.81760   0.13398   0.01267  Uiso   1.00
O5     O     0.13180   0.91260   0.02165   0.01267  Uiso   1.00
O6     O     0.21490   0.93520   0.06019   0.01267  Uiso   1.00
O7     O     0.65820   0.15150   0.96322   0.01267  Uiso   1.00
O8     O     0.66850   0.32910   0.94072   0.01267  Uiso   1.00
O9     O     0.59120   0.74210   0.98850   0.01267  Uiso   1.00
O10    O     0.35950   0.00370   0.51767   0.01267  Uiso   1.00
O11    O     0.47140   0.07180   0.55044   0.01267  Uiso   1.00
O12    O     0.25800   0.18360   0.63210   0.01267  Uiso   1.00
O13    O     0.05160   0.18240   0.63398   0.01267  Uiso   1.00
O14    O     0.86820   0.08740   0.52165   0.01267  Uiso   1.00
O15    O     0.78510   0.06480   0.56019   0.01267  Uiso   1.00
O16    O     0.34180   0.84850   0.46322   0.01267  Uiso   1.00
O17    O     0.33150   0.67090   0.44072   0.01267  Uiso   1.00
O18    O     0.40880   0.25790   0.48850   0.01267  Uiso   1.00
O19    O     0.00370   0.64050   0.26767   0.01267  Uiso   1.00
O20    O     0.07180   0.52860   0.30044   0.01267  Uiso   1.00
O21    O     0.18360   0.74200   0.38210   0.01267  Uiso   1.00
O22    O     0.18240   0.94840   0.38398   0.01267  Uiso   1.00
O23    O     0.08740   0.13180   0.27165   0.01267  Uiso   1.00
O24    O     0.06480   0.21490   0.31019   0.01267  Uiso   1.00
O25    O     0.84850   0.65820   0.21322   0.01267  Uiso   1.00
O26    O     0.67090   0.66850   0.19072   0.01267  Uiso   1.00
O27    O     0.25790   0.59120   0.23850   0.01267  Uiso   1.00
O28    O     0.99630   0.35950   0.76767   0.01267  Uiso   1.00
O29    O     0.92820   0.47140   0.80044   0.01267  Uiso   1.00
O30    O     0.81640   0.25800   0.88210   0.01267  Uiso   1.00
O31    O     0.81760   0.05160   0.88398   0.01267  Uiso   1.00
O32    O     0.91260   0.86820   0.77165   0.01267  Uiso   1.00
O33    O     0.93520   0.78510   0.81019   0.01267  Uiso   1.00
O34    O     0.15150   0.34180   0.71322   0.01267  Uiso   1.00
O35    O     0.32910   0.33150   0.69072   0.01267  Uiso   1.00
O36    O     0.74210   0.40880   0.73850   0.01267  Uiso   1.00
O37    O     0.35950   0.99630   0.98233   0.01267  Uiso   1.00
O38    O     0.47140   0.92820   0.94956   0.01267  Uiso   1.00
O39    O     0.25800   0.81640   0.86790   0.01267  Uiso   1.00
O40    O     0.05160   0.81760   0.86602   0.01267  Uiso   1.00
O41    O     0.86820   0.91260   0.97835   0.01267  Uiso   1.00
O42    O     0.78510   0.93520   0.93981   0.01267  Uiso   1.00
O43    O     0.34180   0.15150   0.03678   0.01267  Uiso   1.00
O44    O     0.33150   0.32910   0.05928   0.01267  Uiso   1.00
O45    O     0.40880   0.74210   0.01150   0.01267  Uiso   1.00
O46    O     0.64050   0.00370   0.48233   0.01267  Uiso   1.00
O47    O     0.52860   0.07180   0.44956   0.01267  Uiso   1.00
O48    O     0.74200   0.18360   0.36790   0.01267  Uiso   1.00
O49    O     0.94840   0.18240   0.36602   0.01267  Uiso   1.00
O50    O     0.13180   0.08740   0.47835   0.01267  Uiso   1.00
O51    O     0.21490   0.06480   0.43981   0.01267  Uiso   1.00
O52    O     0.65820   0.84850   0.53678   0.01267  Uiso   1.00
O53    O     0.66850   0.67090   0.55928   0.01267  Uiso   1.00
O54    O     0.59120   0.25790   0.51150   0.01267  Uiso   1.00
O55    O     0.99630   0.64050   0.73233   0.01267  Uiso   1.00
O56    O     0.92820   0.52860   0.69956   0.01267  Uiso   1.00
O57    O     0.81640   0.74200   0.61790   0.01267  Uiso   1.00
O58    O     0.81760   0.94840   0.61602   0.01267  Uiso   1.00
O59    O     0.91260   0.13180   0.72835   0.01267  Uiso   1.00
O60    O     0.93520   0.21490   0.68981   0.01267  Uiso   1.00
O61    O     0.15150   0.65820   0.78678   0.01267  Uiso   1.00
O62    O     0.32910   0.66850   0.80928   0.01267  Uiso   1.00
O63    O     0.74210   0.59120   0.76150   0.01267  Uiso   1.00
O64    O     0.00370   0.35950   0.23233   0.01267  Uiso   1.00
O65    O     0.07180   0.47140   0.19956   0.01267  Uiso   1.00
O66    O     0.18360   0.25800   0.11790   0.01267  Uiso   1.00
O67    O     0.18240   0.05160   0.11602   0.01267  Uiso   1.00
O68    O     0.08740   0.86820   0.22835   0.01267  Uiso   1.00
O69    O     0.06480   0.78510   0.18981   0.01267  Uiso   1.00
O70    O     0.84850   0.34180   0.28678   0.01267  Uiso   1.00
O71    O     0.67090   0.33150   0.30928   0.01267  Uiso   1.00
O72    O     0.25790   0.40880   0.26150   0.01267  Uiso   1.00
