data_CEHZAR01_clean
_audit_creation_date              2014-07-02
_audit_creation_method            'Materials Studio'
_symmetry_space_group_name_H-M    'P1'
_symmetry_Int_Tables_number       1
_symmetry_cell_setting            triclinic
loop_
_symmetry_equiv_pos_as_xyz
  x,y,z
_cell_length_a                    6.9749
_cell_length_b                    8.3336
_cell_length_c                    8.3336
_cell_angle_alpha                 113.7450
_cell_angle_beta                  90.8252
_cell_angle_gamma                 90.8252
loop_
_atom_site_label
_atom_site_type_symbol
_atom_site_fract_x
_atom_site_fract_y
_atom_site_fract_z
_atom_site_U_iso_or_equiv
_atom_site_adp_type
_atom_site_occupancy
Cd1    Cd    0.75000   0.92885   0.07115   0.01267  Uiso   1.00
Cd2    Cd    0.25000   0.07115   0.92885   0.01267  Uiso   1.00
H1     H     0.05100   0.01200   0.30200   0.01267  Uiso   1.00
H2     H     0.86110   0.23040   0.45680   0.01267  Uiso   1.00
H3     H     0.75550   0.10160   0.52280   0.01267  Uiso   1.00
H4     H     0.85620   0.78630   0.40030   0.01267  Uiso   1.00
H5     H     0.02080   0.73240   0.26340   0.01267  Uiso   1.00
H6     H     0.44900   0.69800   0.98800   0.01267  Uiso   1.00
H7     H     0.63890   0.54320   0.76960   0.01267  Uiso   1.00
H8     H     0.74450   0.47720   0.89840   0.01267  Uiso   1.00
H9     H     0.64380   0.59970   0.21370   0.01267  Uiso   1.00
H10    H     0.47920   0.73660   0.26760   0.01267  Uiso   1.00
H11    H     0.94900   0.98800   0.69800   0.01267  Uiso   1.00
H12    H     0.13890   0.76960   0.54320   0.01267  Uiso   1.00
H13    H     0.24450   0.89840   0.47720   0.01267  Uiso   1.00
H14    H     0.14380   0.21370   0.59970   0.01267  Uiso   1.00
H15    H     0.97920   0.26760   0.73660   0.01267  Uiso   1.00
H16    H     0.55100   0.30200   0.01200   0.01267  Uiso   1.00
H17    H     0.36110   0.45680   0.23040   0.01267  Uiso   1.00
H18    H     0.25550   0.52280   0.10160   0.01267  Uiso   1.00
H19    H     0.35620   0.40030   0.78630   0.01267  Uiso   1.00
H20    H     0.52080   0.26340   0.73240   0.01267  Uiso   1.00
C1     C     0.87770   0.12870   0.48430   0.01267  Uiso   1.00
C2     C     0.97410   0.82682   0.36718   0.01267  Uiso   1.00
C3     C     0.62230   0.51570   0.87130   0.01267  Uiso   1.00
C4     C     0.52590   0.63282   0.17318   0.01267  Uiso   1.00
C5     C     0.12230   0.87130   0.51570   0.01267  Uiso   1.00
C6     C     0.02590   0.17318   0.63282   0.01267  Uiso   1.00
C7     C     0.37770   0.48430   0.12870   0.01267  Uiso   1.00
C8     C     0.47410   0.36718   0.82682   0.01267  Uiso   1.00
Br1    Br    0.42677   0.10250   0.24818   0.01267  Uiso   1.00
Br2    Br    0.07323   0.75182   0.89750   0.01267  Uiso   1.00
Br3    Br    0.57323   0.89750   0.75182   0.01267  Uiso   1.00
Br4    Br    0.92677   0.24818   0.10250   0.01267  Uiso   1.00
N1     N     0.93360   0.97940   0.32560   0.01267  Uiso   1.00
N2     N     0.56640   0.67440   0.02060   0.01267  Uiso   1.00
N3     N     0.06640   0.02060   0.67440   0.01267  Uiso   1.00
N4     N     0.43360   0.32560   0.97940   0.01267  Uiso   1.00
