data_CELZIE_clean
_audit_creation_date              2014-07-02
_audit_creation_method            'Materials Studio'
_symmetry_space_group_name_H-M    'P1'
_symmetry_Int_Tables_number       1
_symmetry_cell_setting            triclinic
loop_
_symmetry_equiv_pos_as_xyz
  x,y,z
_cell_length_a                    10.5698
_cell_length_b                    16.0023
_cell_length_c                    16.0023
_cell_angle_alpha                 83.7382
_cell_angle_beta                  70.7155
_cell_angle_gamma                 70.7155
loop_
_atom_site_label
_atom_site_type_symbol
_atom_site_fract_x
_atom_site_fract_y
_atom_site_fract_z
_atom_site_U_iso_or_equiv
_atom_site_adp_type
_atom_site_occupancy
Al1    Al    0.76272   0.69264   0.17386   0.01267  Uiso   1.00
Al2    Al    0.12922   0.80736   0.32614   0.01267  Uiso   1.00
Al3    Al    0.93658   0.82614   0.19264   0.01267  Uiso   1.00
Al4    Al    0.45536   0.67386   0.30736   0.01267  Uiso   1.00
Al5    Al    0.23728   0.30736   0.82614   0.01267  Uiso   1.00
Al6    Al    0.87078   0.19264   0.67386   0.01267  Uiso   1.00
Al7    Al    0.06342   0.17386   0.80736   0.01267  Uiso   1.00
Al8    Al    0.54464   0.32614   0.69264   0.01267  Uiso   1.00
C1     C     0.84607   0.40894   0.49766   0.01267  Uiso   1.00
C2     C     0.94651   0.50762   0.34980   0.01267  Uiso   1.00
C3     C     0.79490   0.34810   0.57044   0.01267  Uiso   1.00
C4     C     0.27845   0.38382   0.39748   0.01267  Uiso   1.00
C5     C     0.98607   0.40012   0.46528   0.01267  Uiso   1.00
C6     C     0.74363   0.46823   0.45831   0.01267  Uiso   1.00
C7     C     0.71952   0.58082   0.33006   0.01267  Uiso   1.00
C8     C     0.80190   0.51235   0.38733   0.01267  Uiso   1.00
C9     C     0.03810   0.45247   0.39209   0.01267  Uiso   1.00
C10    C     0.25267   0.09106   0.00234   0.01267  Uiso   1.00
C11    C     0.30393   0.99238   0.15020   0.01267  Uiso   1.00
C12    C     0.21344   0.15190   0.92956   0.01267  Uiso   1.00
C13    C     0.55975   0.11618   0.10252   0.01267  Uiso   1.00
C14    C     0.35147   0.09988   0.03472   0.01267  Uiso   1.00
C15    C     0.17017   0.03177   0.04169   0.01267  Uiso   1.00
C16    C     0.13040   0.91918   0.16994   0.01267  Uiso   1.00
C17    C     0.20158   0.98765   0.11267   0.01267  Uiso   1.00
C18    C     0.38266   0.04753   0.10791   0.01267  Uiso   1.00
C19    C     0.34373   0.50234   0.90894   0.01267  Uiso   1.00
C20    C     0.29631   0.65020   0.00762   0.01267  Uiso   1.00
C21    C     0.36534   0.42956   0.84810   0.01267  Uiso   1.00
C22    C     0.67593   0.60252   0.88382   0.01267  Uiso   1.00
C23    C     0.45135   0.53472   0.90012   0.01267  Uiso   1.00
C24    C     0.20194   0.54169   0.96823   0.01267  Uiso   1.00
C25    C     0.04958   0.66994   0.08082   0.01267  Uiso   1.00
C26    C     0.18923   0.61267   0.01235   0.01267  Uiso   1.00
C27    C     0.43019   0.60791   0.95247   0.01267  Uiso   1.00
C28    C     0.25501   0.99766   0.59106   0.01267  Uiso   1.00
C29    C     0.45413   0.84980   0.49238   0.01267  Uiso   1.00
C30    C     0.14300   0.07044   0.65190   0.01267  Uiso   1.00
C31    C     0.66227   0.89748   0.61618   0.01267  Uiso   1.00
C32    C     0.38619   0.96528   0.59988   0.01267  Uiso   1.00
C33    C     0.21186   0.95831   0.53177   0.01267  Uiso   1.00
C34    C     0.30034   0.83006   0.41918   0.01267  Uiso   1.00
C35    C     0.31425   0.88733   0.48765   0.01267  Uiso   1.00
C36    C     0.49057   0.89209   0.54753   0.01267  Uiso   1.00
C37    C     0.15393   0.59106   0.50234   0.01267  Uiso   1.00
C38    C     0.05349   0.49238   0.65020   0.01267  Uiso   1.00
C39    C     0.20510   0.65190   0.42956   0.01267  Uiso   1.00
C40    C     0.72155   0.61618   0.60252   0.01267  Uiso   1.00
C41    C     0.01393   0.59988   0.53472   0.01267  Uiso   1.00
C42    C     0.25637   0.53177   0.54169   0.01267  Uiso   1.00
C43    C     0.28048   0.41918   0.66994   0.01267  Uiso   1.00
C44    C     0.19810   0.48765   0.61267   0.01267  Uiso   1.00
C45    C     0.96190   0.54753   0.60791   0.01267  Uiso   1.00
C46    C     0.74733   0.90894   0.99766   0.01267  Uiso   1.00
C47    C     0.69607   0.00762   0.84980   0.01267  Uiso   1.00
C48    C     0.78656   0.84810   0.07044   0.01267  Uiso   1.00
C49    C     0.44025   0.88382   0.89748   0.01267  Uiso   1.00
C50    C     0.64853   0.90012   0.96528   0.01267  Uiso   1.00
C51    C     0.82983   0.96823   0.95831   0.01267  Uiso   1.00
C52    C     0.86960   0.08082   0.83006   0.01267  Uiso   1.00
C53    C     0.79842   0.01235   0.88733   0.01267  Uiso   1.00
C54    C     0.61734   0.95247   0.89209   0.01267  Uiso   1.00
C55    C     0.65627   0.49766   0.09106   0.01267  Uiso   1.00
C56    C     0.70369   0.34980   0.99238   0.01267  Uiso   1.00
C57    C     0.63466   0.57044   0.15190   0.01267  Uiso   1.00
C58    C     0.32407   0.39748   0.11618   0.01267  Uiso   1.00
C59    C     0.54865   0.46528   0.09988   0.01267  Uiso   1.00
C60    C     0.79806   0.45831   0.03177   0.01267  Uiso   1.00
C61    C     0.95042   0.33006   0.91918   0.01267  Uiso   1.00
C62    C     0.81077   0.38733   0.98765   0.01267  Uiso   1.00
C63    C     0.56981   0.39209   0.04753   0.01267  Uiso   1.00
C64    C     0.74499   0.00234   0.40894   0.01267  Uiso   1.00
C65    C     0.54587   0.15020   0.50762   0.01267  Uiso   1.00
C66    C     0.85700   0.92956   0.34810   0.01267  Uiso   1.00
C67    C     0.33773   0.10252   0.38382   0.01267  Uiso   1.00
C68    C     0.61381   0.03472   0.40012   0.01267  Uiso   1.00
C69    C     0.78814   0.04169   0.46823   0.01267  Uiso   1.00
C70    C     0.69966   0.16994   0.58082   0.01267  Uiso   1.00
C71    C     0.68575   0.11267   0.51235   0.01267  Uiso   1.00
C72    C     0.50943   0.10791   0.45247   0.01267  Uiso   1.00
O1     O     0.88300   0.28155   0.59059   0.01267  Uiso   1.00
O2     O     0.78440   0.60471   0.25445   0.01267  Uiso   1.00
O3     O     0.58838   0.60627   0.37217   0.01267  Uiso   1.00
O4     O     0.67007   0.38657   0.61611   0.01267  Uiso   1.00
O5     O     0.57608   0.73715   0.23867   0.01267  Uiso   1.00
O6     O     0.18645   0.43633   0.35105   0.01267  Uiso   1.00
O7     O     0.25514   0.21845   0.90941   0.01267  Uiso   1.00
O8     O     0.14356   0.89529   0.24555   0.01267  Uiso   1.00
O9     O     0.06682   0.89373   0.12783   0.01267  Uiso   1.00
O10    O     0.17275   0.11343   0.88389   0.01267  Uiso   1.00
O11    O     0.05190   0.76285   0.26133   0.01267  Uiso   1.00
O12    O     0.47383   0.06367   0.14895   0.01267  Uiso   1.00
O13    O     0.47359   0.40941   0.78155   0.01267  Uiso   1.00
O14    O     0.03885   0.74555   0.10471   0.01267  Uiso   1.00
O15    O     0.96055   0.62783   0.10627   0.01267  Uiso   1.00
O16    O     0.28618   0.38389   0.88657   0.01267  Uiso   1.00
O17    O     0.81475   0.76133   0.23715   0.01267  Uiso   1.00
O18    O     0.53750   0.64895   0.93633   0.01267  Uiso   1.00
O19    O     0.16455   0.09059   0.71845   0.01267  Uiso   1.00
O20    O     0.38911   0.75445   0.39529   0.01267  Uiso   1.00
O21    O     0.19465   0.87217   0.39373   0.01267  Uiso   1.00
O22    O     0.05664   0.11611   0.61343   0.01267  Uiso   1.00
O23    O     0.31323   0.73867   0.26285   0.01267  Uiso   1.00
O24    O     0.62278   0.85105   0.56367   0.01267  Uiso   1.00
O25    O     0.11700   0.71845   0.40941   0.01267  Uiso   1.00
O26    O     0.21560   0.39529   0.74555   0.01267  Uiso   1.00
O27    O     0.41162   0.39373   0.62783   0.01267  Uiso   1.00
O28    O     0.32993   0.61343   0.38389   0.01267  Uiso   1.00
O29    O     0.42392   0.26285   0.76133   0.01267  Uiso   1.00
O30    O     0.81355   0.56367   0.64895   0.01267  Uiso   1.00
O31    O     0.74486   0.78155   0.09059   0.01267  Uiso   1.00
O32    O     0.85644   0.10471   0.75445   0.01267  Uiso   1.00
O33    O     0.93318   0.10627   0.87217   0.01267  Uiso   1.00
O34    O     0.82725   0.88657   0.11611   0.01267  Uiso   1.00
O35    O     0.94810   0.23715   0.73867   0.01267  Uiso   1.00
O36    O     0.52617   0.93633   0.85105   0.01267  Uiso   1.00
O37    O     0.52641   0.59059   0.21845   0.01267  Uiso   1.00
O38    O     0.96115   0.25445   0.89529   0.01267  Uiso   1.00
O39    O     0.03945   0.37217   0.89373   0.01267  Uiso   1.00
O40    O     0.71382   0.61611   0.11343   0.01267  Uiso   1.00
O41    O     0.18525   0.23867   0.76285   0.01267  Uiso   1.00
O42    O     0.46250   0.35105   0.06367   0.01267  Uiso   1.00
O43    O     0.83545   0.90941   0.28155   0.01267  Uiso   1.00
O44    O     0.61089   0.24555   0.60471   0.01267  Uiso   1.00
O45    O     0.80535   0.12783   0.60627   0.01267  Uiso   1.00
O46    O     0.94336   0.88389   0.38657   0.01267  Uiso   1.00
O47    O     0.68677   0.26133   0.73715   0.01267  Uiso   1.00
O48    O     0.37722   0.14895   0.43633   0.01267  Uiso   1.00
