data_CITZIP_clean
_audit_creation_date              2014-07-02
_audit_creation_method            'Materials Studio'
_symmetry_space_group_name_H-M    'P1'
_symmetry_Int_Tables_number       1
_symmetry_cell_setting            triclinic
loop_
_symmetry_equiv_pos_as_xyz
  x,y,z
_cell_length_a                    10.8123
_cell_length_b                    11.1357
_cell_length_c                    11.1357
_cell_angle_alpha                 103.7080
_cell_angle_beta                  102.1570
_cell_angle_gamma                 77.8431
loop_
_atom_site_label
_atom_site_type_symbol
_atom_site_fract_x
_atom_site_fract_y
_atom_site_fract_z
_atom_site_U_iso_or_equiv
_atom_site_adp_type
_atom_site_occupancy
Co1    Co    0.95072   0.06012   0.87908   0.01267  Uiso   1.00
Co2    Co    0.54928   0.87908   0.06012   0.01267  Uiso   1.00
Co3    Co    0.04928   0.93988   0.12092   0.01267  Uiso   1.00
Co4    Co    0.45072   0.12092   0.93988   0.01267  Uiso   1.00
Co5    Co    0.75000   0.90413   0.90413   0.01267  Uiso   1.00
Co6    Co    0.25000   0.09587   0.09587   0.01267  Uiso   1.00
H1     H     0.94110   0.51840   0.85220   0.01267  Uiso   1.00
H2     H     0.02250   0.30670   0.82710   0.01267  Uiso   1.00
H3     H     0.63440   0.45160   0.95940   0.01267  Uiso   1.00
H4     H     0.55890   0.85220   0.51840   0.01267  Uiso   1.00
H5     H     0.47750   0.82710   0.30670   0.01267  Uiso   1.00
H6     H     0.86560   0.95940   0.45160   0.01267  Uiso   1.00
H7     H     0.05890   0.48160   0.14780   0.01267  Uiso   1.00
H8     H     0.97750   0.69330   0.17290   0.01267  Uiso   1.00
H9     H     0.36560   0.54840   0.04060   0.01267  Uiso   1.00
H10    H     0.44110   0.14780   0.48160   0.01267  Uiso   1.00
H11    H     0.52250   0.17290   0.69330   0.01267  Uiso   1.00
H12    H     0.13440   0.04060   0.54840   0.01267  Uiso   1.00
C1     C     0.89580   0.46430   0.87010   0.01267  Uiso   1.00
C2     C     0.94440   0.33640   0.85540   0.01267  Uiso   1.00
C3     C     0.78050   0.51030   0.91130   0.01267  Uiso   1.00
C4     C     0.71370   0.42450   0.93350   0.01267  Uiso   1.00
C5     C     0.72890   0.64910   0.93270   0.01267  Uiso   1.00
C6     C     0.76800   0.29950   0.91590   0.01267  Uiso   1.00
C7     C     0.70270   0.20160   0.93680   0.01267  Uiso   1.00
C8     C     0.60420   0.87010   0.46430   0.01267  Uiso   1.00
C9     C     0.55560   0.85540   0.33640   0.01267  Uiso   1.00
C10    C     0.71950   0.91130   0.51030   0.01267  Uiso   1.00
C11    C     0.78630   0.93350   0.42450   0.01267  Uiso   1.00
C12    C     0.77110   0.93270   0.64910   0.01267  Uiso   1.00
C13    C     0.73200   0.91590   0.29950   0.01267  Uiso   1.00
C14    C     0.79730   0.93680   0.20160   0.01267  Uiso   1.00
C15    C     0.10420   0.53570   0.12990   0.01267  Uiso   1.00
C16    C     0.05560   0.66360   0.14460   0.01267  Uiso   1.00
C17    C     0.21950   0.48970   0.08870   0.01267  Uiso   1.00
C18    C     0.28630   0.57550   0.06650   0.01267  Uiso   1.00
C19    C     0.27110   0.35090   0.06730   0.01267  Uiso   1.00
C20    C     0.23200   0.70050   0.08410   0.01267  Uiso   1.00
C21    C     0.29730   0.79840   0.06320   0.01267  Uiso   1.00
C22    C     0.39580   0.12990   0.53570   0.01267  Uiso   1.00
C23    C     0.44440   0.14460   0.66360   0.01267  Uiso   1.00
C24    C     0.28050   0.08870   0.48970   0.01267  Uiso   1.00
C25    C     0.21370   0.06650   0.57550   0.01267  Uiso   1.00
C26    C     0.22890   0.06730   0.35090   0.01267  Uiso   1.00
C27    C     0.26800   0.08410   0.70050   0.01267  Uiso   1.00
C28    C     0.20270   0.06320   0.79840   0.01267  Uiso   1.00
N1     N     0.88380   0.25550   0.87990   0.01267  Uiso   1.00
N2     N     0.61620   0.87990   0.25550   0.01267  Uiso   1.00
N3     N     0.11620   0.74450   0.12010   0.01267  Uiso   1.00
N4     N     0.38380   0.12010   0.74450   0.01267  Uiso   1.00
O1     O     0.94860   0.89470   0.93690   0.01267  Uiso   1.00
O2     O     0.76830   0.09360   0.93180   0.01267  Uiso   1.00
O3     O     0.58920   0.22930   0.95390   0.01267  Uiso   1.00
O4     O     0.77160   0.71110   0.87570   0.01267  Uiso   1.00
O5     O     0.65060   0.69020   0.00560   0.01267  Uiso   1.00
O6     O     0.55140   0.93690   0.89470   0.01267  Uiso   1.00
O7     O     0.73170   0.93180   0.09360   0.01267  Uiso   1.00
O8     O     0.91080   0.95390   0.22930   0.01267  Uiso   1.00
O9     O     0.72840   0.87570   0.71110   0.01267  Uiso   1.00
O10    O     0.84940   0.00560   0.69020   0.01267  Uiso   1.00
O11    O     0.05140   0.10530   0.06310   0.01267  Uiso   1.00
O12    O     0.23170   0.90640   0.06820   0.01267  Uiso   1.00
O13    O     0.41080   0.77070   0.04610   0.01267  Uiso   1.00
O14    O     0.22840   0.28890   0.12430   0.01267  Uiso   1.00
O15    O     0.34940   0.30980   0.99440   0.01267  Uiso   1.00
O16    O     0.44860   0.06310   0.10530   0.01267  Uiso   1.00
O17    O     0.26830   0.06820   0.90640   0.01267  Uiso   1.00
O18    O     0.08920   0.04610   0.77070   0.01267  Uiso   1.00
O19    O     0.27160   0.12430   0.28890   0.01267  Uiso   1.00
O20    O     0.15060   0.99440   0.30980   0.01267  Uiso   1.00
