data_COBWEV_clean
_audit_creation_date              2014-07-02
_audit_creation_method            'Materials Studio'
_symmetry_space_group_name_H-M    'P1'
_symmetry_Int_Tables_number       1
_symmetry_cell_setting            triclinic
loop_
_symmetry_equiv_pos_as_xyz
  x,y,z
_cell_length_a                    5.3690
_cell_length_b                    15.6367
_cell_length_c                    20.0847
_cell_angle_alpha                 88.4868
_cell_angle_beta                  82.3189
_cell_angle_gamma                 80.1145
loop_
_atom_site_label
_atom_site_type_symbol
_atom_site_fract_x
_atom_site_fract_y
_atom_site_fract_z
_atom_site_U_iso_or_equiv
_atom_site_adp_type
_atom_site_occupancy
Cd1    Cd    0.14900   0.04880   0.42320   0.01267  Uiso   1.00
Cd2    Cd    0.68650   0.58500   0.04200   0.01267  Uiso   1.00
Cd3    Cd    0.62100   0.95120   0.57680   0.01267  Uiso   1.00
Cd4    Cd    0.31350   0.41500   0.95800   0.01267  Uiso   1.00
P1     P     0.24380   0.63890   0.95750   0.01267  Uiso   1.00
P2     P     0.77100   0.93010   0.40790   0.01267  Uiso   1.00
P3     P     0.84020   0.36110   0.04250   0.01267  Uiso   1.00
P4     P     0.10900   0.06990   0.59210   0.01267  Uiso   1.00
C1     C     0.95360   0.83500   0.65780   0.01267  Uiso   1.00
C2     C     0.84380   0.66480   0.15360   0.01267  Uiso   1.00
C3     C     0.63660   0.91610   0.74670   0.01267  Uiso   1.00
C4     C     0.52560   0.77670   0.13610   0.01267  Uiso   1.00
C5     C     0.79540   0.87610   0.80310   0.01267  Uiso   1.00
C6     C     0.57490   0.82980   0.19040   0.01267  Uiso   1.00
C7     C     0.01910   0.81990   0.78190   0.01267  Uiso   1.00
C8     C     0.77250   0.80070   0.23230   0.01267  Uiso   1.00
C9     C     0.29760   0.72730   0.69150   0.01267  Uiso   1.00
C10    C     0.11730   0.66000   0.24740   0.01267  Uiso   1.00
C11    C     0.24760   0.63930   0.67750   0.01267  Uiso   1.00
C12    C     0.00410   0.59830   0.30550   0.01267  Uiso   1.00
C13    C     0.27410   0.60480   0.74500   0.01267  Uiso   1.00
C14    C     0.02370   0.65090   0.36570   0.01267  Uiso   1.00
C15    C     0.52730   0.62840   0.76500   0.01267  Uiso   1.00
C16    C     0.20790   0.71180   0.35040   0.01267  Uiso   1.00
C17    C     0.55840   0.63230   0.84290   0.01267  Uiso   1.00
C18    C     0.12550   0.80080   0.38420   0.01267  Uiso   1.00
C19    C     0.44640   0.16500   0.34220   0.01267  Uiso   1.00
C20    C     0.66220   0.33520   0.84640   0.01267  Uiso   1.00
C21    C     0.29940   0.08390   0.25330   0.01267  Uiso   1.00
C22    C     0.43840   0.22330   0.86390   0.01267  Uiso   1.00
C23    C     0.47460   0.12390   0.19690   0.01267  Uiso   1.00
C24    C     0.59510   0.17020   0.80960   0.01267  Uiso   1.00
C25    C     0.62090   0.18010   0.21810   0.01267  Uiso   1.00
C26    C     0.80550   0.19930   0.76770   0.01267  Uiso   1.00
C27    C     0.71640   0.27270   0.30850   0.01267  Uiso   1.00
C28    C     0.02470   0.34000   0.75260   0.01267  Uiso   1.00
C29    C     0.56440   0.36070   0.32250   0.01267  Uiso   1.00
C30    C     0.90790   0.40170   0.69450   0.01267  Uiso   1.00
C31    C     0.62390   0.39520   0.25500   0.01267  Uiso   1.00
C32    C     0.04030   0.34910   0.63430   0.01267  Uiso   1.00
C33    C     0.92070   0.37160   0.23500   0.01267  Uiso   1.00
C34    C     0.27010   0.28820   0.64960   0.01267  Uiso   1.00
C35    C     0.03360   0.36770   0.15710   0.01267  Uiso   1.00
C36    C     0.31050   0.19920   0.61580   0.01267  Uiso   1.00
N1     N     0.09880   0.79310   0.71530   0.01267  Uiso   1.00
N2     N     0.88820   0.70990   0.20970   0.01267  Uiso   1.00
N3     N     0.75800   0.88890   0.68310   0.01267  Uiso   1.00
N4     N     0.64530   0.69340   0.11400   0.01267  Uiso   1.00
N5     N     0.42100   0.97300   0.75900   0.01267  Uiso   1.00
N6     N     0.32510   0.81140   0.10040   0.01267  Uiso   1.00
N7     N     0.60720   0.20690   0.28470   0.01267  Uiso   1.00
N8     N     0.80780   0.29010   0.79030   0.01267  Uiso   1.00
N9     N     0.33000   0.11110   0.31690   0.01267  Uiso   1.00
N10    N     0.45270   0.30660   0.88600   0.01267  Uiso   1.00
N11    N     0.15300   0.02700   0.24100   0.01267  Uiso   1.00
N12    N     0.23690   0.18860   0.89960   0.01267  Uiso   1.00
O1     O     0.31640   0.66050   0.87870   0.01267  Uiso   1.00
O2     O     0.88410   0.83660   0.37920   0.01267  Uiso   1.00
O3     O     0.41430   0.54840   0.97100   0.01267  Uiso   1.00
O4     O     0.87650   0.93260   0.47440   0.01267  Uiso   1.00
O5     O     0.30850   0.71690   0.99210   0.01267  Uiso   1.00
O6     O     0.88660   0.99550   0.36130   0.01267  Uiso   1.00
O7     O     0.98490   0.63180   0.96240   0.01267  Uiso   1.00
O8     O     0.49310   0.93520   0.41260   0.01267  Uiso   1.00
O9     O     0.02190   0.80880   0.59940   0.01267  Uiso   1.00
O10    O     0.95100   0.59350   0.13850   0.01267  Uiso   1.00
O11    O     0.48110   0.72470   0.74510   0.01267  Uiso   1.00
O12    O     0.20020   0.72540   0.27820   0.01267  Uiso   1.00
O13    O     0.32670   0.50740   0.74520   0.01267  Uiso   1.00
O14    O     0.03700   0.58430   0.42570   0.01267  Uiso   1.00
O15    O     0.85560   0.33950   0.12130   0.01267  Uiso   1.00
O16    O     0.09990   0.16340   0.62080   0.01267  Uiso   1.00
O17    O     0.93370   0.45160   0.02900   0.01267  Uiso   1.00
O18    O     0.28350   0.06740   0.52560   0.01267  Uiso   1.00
O19    O     0.01750   0.28310   0.00790   0.01267  Uiso   1.00
O20    O     0.24340   0.00450   0.63870   0.01267  Uiso   1.00
O21    O     0.57910   0.36820   0.03760   0.01267  Uiso   1.00
O22    O     0.84090   0.06480   0.58740   0.01267  Uiso   1.00
O23    O     0.43010   0.19120   0.40060   0.01267  Uiso   1.00
O24    O     0.68300   0.40650   0.86150   0.01267  Uiso   1.00
O25    O     0.95090   0.27530   0.25490   0.01267  Uiso   1.00
O26    O     0.20380   0.27460   0.72180   0.01267  Uiso   1.00
O27    O     0.57930   0.49260   0.25480   0.01267  Uiso   1.00
O28    O     0.04700   0.41570   0.57430   0.01267  Uiso   1.00
