data_COGWEB_clean
_audit_creation_date              2014-07-02
_audit_creation_method            'Materials Studio'
_symmetry_space_group_name_H-M    'P1'
_symmetry_Int_Tables_number       1
_symmetry_cell_setting            triclinic
loop_
_symmetry_equiv_pos_as_xyz
  x,y,z
_cell_length_a                    12.9350
_cell_length_b                    12.9350
_cell_length_c                    23.2420
_cell_angle_alpha                 90.0000
_cell_angle_beta                  90.0000
_cell_angle_gamma                 90.0000
loop_
_atom_site_label
_atom_site_type_symbol
_atom_site_fract_x
_atom_site_fract_y
_atom_site_fract_z
_atom_site_U_iso_or_equiv
_atom_site_adp_type
_atom_site_occupancy
Zn1    Zn    0.25212   0.35893   0.74872   0.01267  Uiso   1.00
Zn2    Zn    0.27113   0.34110   0.87671   0.01267  Uiso   1.00
H1     H     0.59140   0.36460   0.88470   0.01267  Uiso   1.00
H2     H     0.74690   0.34100   0.69660   0.01267  Uiso   1.00
H3     H     0.56630   0.35390   0.70640   0.01267  Uiso   1.00
H4     H     0.78240   0.36400   0.92880   0.01267  Uiso   1.00
H5     H     0.94900   0.33000   0.91320   0.01267  Uiso   1.00
H6     H     0.91820   0.34130   0.74370   0.01267  Uiso   1.00
H7     H     0.26060   0.00440   0.89060   0.01267  Uiso   1.00
H8     H     0.23110   0.86580   0.70150   0.01267  Uiso   1.00
H9     H     0.29900   0.02120   0.71540   0.01267  Uiso   1.00
H10    H     0.23550   0.84130   0.92950   0.01267  Uiso   1.00
H11    H     0.25170   0.65960   0.92670   0.01267  Uiso   1.00
H12    H     0.22820   0.68410   0.74880   0.01267  Uiso   1.00
H13    H     0.21600   0.17540   0.95430   0.01267  Uiso   1.00
H14    H     0.21060   0.11410   0.04640   0.01267  Uiso   1.00
H15    H     0.22810   0.23780   0.11660   0.01267  Uiso   1.00
H16    H     0.39130   0.47460   0.94890   0.01267  Uiso   1.00
H17    H     0.42990   0.59250   0.01250   0.01267  Uiso   1.00
H18    H     0.43570   0.54930   0.11760   0.01267  Uiso   1.00
H19    H     0.07330   0.44370   0.25390   0.01267  Uiso   1.00
H20    H     0.04150   0.37220   0.33650   0.01267  Uiso   1.00
H21    H     0.54840   0.32630   0.27830   0.01267  Uiso   1.00
H22    H     0.51230   0.29060   0.37510   0.01267  Uiso   1.00
H23    H     0.17570   0.13640   0.49740   0.01267  Uiso   1.00
H24    H     0.10760   0.07040   0.59940   0.01267  Uiso   1.00
H25    H     0.21180   0.19980   0.67950   0.01267  Uiso   1.00
H26    H     0.31270   0.47960   0.51120   0.01267  Uiso   1.00
H27    H     0.37200   0.57980   0.59080   0.01267  Uiso   1.00
H28    H     0.30710   0.53960   0.67050   0.01267  Uiso   1.00
C1     C     0.45150   0.36880   0.81160   0.01267  Uiso   1.00
C2     C     0.57350   0.36070   0.80230   0.01267  Uiso   1.00
C3     C     0.62480   0.36210   0.84830   0.01267  Uiso   1.00
C4     C     0.74720   0.35940   0.84330   0.01267  Uiso   1.00
C5     C     0.78670   0.33710   0.78620   0.01267  Uiso   1.00
C6     C     0.71670   0.34350   0.73380   0.01267  Uiso   1.00
C7     C     0.61160   0.35260   0.73850   0.01267  Uiso   1.00
C8     C     0.80880   0.35600   0.89100   0.01267  Uiso   1.00
C9     C     0.90650   0.34080   0.88040   0.01267  Uiso   1.00
C10    C     0.95970   0.33830   0.82470   0.01267  Uiso   1.00
C11    C     0.89080   0.33910   0.78160   0.01267  Uiso   1.00
C12    C     0.23860   0.54060   0.82610   0.01267  Uiso   1.00
C13    C     0.27410   0.15110   0.80350   0.01267  Uiso   1.00
C14    C     0.26610   0.05320   0.79620   0.01267  Uiso   1.00
C15    C     0.26210   0.97650   0.85280   0.01267  Uiso   1.00
C16    C     0.26130   0.88080   0.84490   0.01267  Uiso   1.00
C17    C     0.25560   0.83450   0.78870   0.01267  Uiso   1.00
C18    C     0.24940   0.89270   0.73810   0.01267  Uiso   1.00
C19    C     0.27180   0.98720   0.74830   0.01267  Uiso   1.00
C20    C     0.24760   0.80990   0.89320   0.01267  Uiso   1.00
C21    C     0.25000   0.70120   0.89300   0.01267  Uiso   1.00
C22    C     0.24970   0.65860   0.83180   0.01267  Uiso   1.00
C23    C     0.24200   0.71580   0.78490   0.01267  Uiso   1.00
C24    C     0.07000   0.33420   0.82250   0.01267  Uiso   1.00
C25    C     0.24030   0.21900   0.98430   0.01267  Uiso   1.00
C26    C     0.23060   0.18320   0.03810   0.01267  Uiso   1.00
C27    C     0.25100   0.25080   0.07850   0.01267  Uiso   1.00
C28    C     0.30930   0.34820   0.06610   0.01267  Uiso   1.00
C29    C     0.30330   0.37560   0.99750   0.01267  Uiso   1.00
C30    C     0.36990   0.46330   0.98750   0.01267  Uiso   1.00
C31    C     0.40360   0.52800   0.02550   0.01267  Uiso   1.00
C32    C     0.40350   0.50690   0.08940   0.01267  Uiso   1.00
C33    C     0.35060   0.41830   0.10090   0.01267  Uiso   1.00
C34    C     0.41780   0.37660   0.19560   0.01267  Uiso   1.00
C35    C     0.23430   0.41700   0.18540   0.01267  Uiso   1.00
C36    C     0.22370   0.39790   0.24670   0.01267  Uiso   1.00
C37    C     0.12770   0.41100   0.27450   0.01267  Uiso   1.00
C38    C     0.11100   0.38200   0.32440   0.01267  Uiso   1.00
C39    C     0.18630   0.36420   0.36120   0.01267  Uiso   1.00
C40    C     0.28500   0.34290   0.33920   0.01267  Uiso   1.00
C41    C     0.30270   0.37400   0.27780   0.01267  Uiso   1.00
C42    C     0.39560   0.36160   0.25950   0.01267  Uiso   1.00
C43    C     0.48080   0.33350   0.29370   0.01267  Uiso   1.00
C44    C     0.45950   0.31720   0.35090   0.01267  Uiso   1.00
C45    C     0.37920   0.33490   0.37060   0.01267  Uiso   1.00
C46    C     0.36500   0.33390   0.44250   0.01267  Uiso   1.00
C47    C     0.18840   0.34990   0.42790   0.01267  Uiso   1.00
C48    C     0.23600   0.28660   0.52240   0.01267  Uiso   1.00
C49    C     0.18520   0.17800   0.53070   0.01267  Uiso   1.00
C50    C     0.14730   0.13080   0.59210   0.01267  Uiso   1.00
C51    C     0.19820   0.21930   0.64090   0.01267  Uiso   1.00
C52    C     0.22250   0.33880   0.61817   0.01267  Uiso   1.00
C53    C     0.25660   0.35680   0.56510   0.01267  Uiso   1.00
C54    C     0.30350   0.45820   0.54990   0.01267  Uiso   1.00
C55    C     0.33240   0.51850   0.59520   0.01267  Uiso   1.00
C56    C     0.30310   0.48680   0.64210   0.01267  Uiso   1.00
N1     N     0.28070   0.30970   0.96850   0.01267  Uiso   1.00
N2     N     0.32600   0.40290   0.16830   0.01267  Uiso   1.00
N3     N     0.25260   0.32380   0.45750   0.01267  Uiso   1.00
N4     N     0.26570   0.39520   0.66550   0.01267  Uiso   1.00
O1     O     0.42040   0.36690   0.85620   0.01267  Uiso   1.00
O2     O     0.41490   0.38040   0.76150   0.01267  Uiso   1.00
O3     O     0.24560   0.49450   0.86920   0.01267  Uiso   1.00
O4     O     0.24680   0.50650   0.77760   0.01267  Uiso   1.00
O5     O     0.28080   0.19540   0.85770   0.01267  Uiso   1.00
O6     O     0.26180   0.20430   0.75670   0.01267  Uiso   1.00
O7     O     0.11940   0.32810   0.86670   0.01267  Uiso   1.00
O8     O     0.10020   0.34920   0.76880   0.01267  Uiso   1.00
O9     O     0.16050   0.44470   0.15710   0.01267  Uiso   1.00
O10    O     0.49650   0.35200   0.17520   0.01267  Uiso   1.00
O11    O     0.07720   0.34110   0.45030   0.01267  Uiso   1.00
O12    O     0.42760   0.28300   0.47160   0.01267  Uiso   1.00
Zn3    Zn    0.74788   0.64107   0.24872   0.01267  Uiso   1.00
Zn4    Zn    0.72887   0.65890   0.37671   0.01267  Uiso   1.00
H29    H     0.40860   0.63540   0.38470   0.01267  Uiso   1.00
H30    H     0.25310   0.65900   0.19660   0.01267  Uiso   1.00
H31    H     0.43370   0.64610   0.20640   0.01267  Uiso   1.00
H32    H     0.21760   0.63600   0.42880   0.01267  Uiso   1.00
H33    H     0.05100   0.67000   0.41320   0.01267  Uiso   1.00
H34    H     0.08180   0.65870   0.24370   0.01267  Uiso   1.00
H35    H     0.73940   0.99560   0.39060   0.01267  Uiso   1.00
H36    H     0.76890   0.13420   0.20150   0.01267  Uiso   1.00
H37    H     0.70100   0.97880   0.21540   0.01267  Uiso   1.00
H38    H     0.76450   0.15870   0.42950   0.01267  Uiso   1.00
H39    H     0.74830   0.34040   0.42670   0.01267  Uiso   1.00
H40    H     0.77180   0.31590   0.24880   0.01267  Uiso   1.00
H41    H     0.78400   0.82460   0.45430   0.01267  Uiso   1.00
H42    H     0.78940   0.88590   0.54640   0.01267  Uiso   1.00
H43    H     0.77190   0.76220   0.61660   0.01267  Uiso   1.00
H44    H     0.60870   0.52540   0.44890   0.01267  Uiso   1.00
H45    H     0.57010   0.40750   0.51250   0.01267  Uiso   1.00
H46    H     0.56430   0.45070   0.61760   0.01267  Uiso   1.00
H47    H     0.92670   0.55630   0.75390   0.01267  Uiso   1.00
H48    H     0.95850   0.62780   0.83650   0.01267  Uiso   1.00
H49    H     0.45160   0.67370   0.77830   0.01267  Uiso   1.00
H50    H     0.48770   0.70940   0.87510   0.01267  Uiso   1.00
H51    H     0.82430   0.86360   0.99740   0.01267  Uiso   1.00
H52    H     0.89240   0.92960   0.09940   0.01267  Uiso   1.00
H53    H     0.78820   0.80020   0.17950   0.01267  Uiso   1.00
H54    H     0.68730   0.52040   0.01120   0.01267  Uiso   1.00
H55    H     0.62800   0.42020   0.09080   0.01267  Uiso   1.00
H56    H     0.69290   0.46040   0.17050   0.01267  Uiso   1.00
C57    C     0.54850   0.63120   0.31160   0.01267  Uiso   1.00
C58    C     0.42650   0.63930   0.30230   0.01267  Uiso   1.00
C59    C     0.37520   0.63790   0.34830   0.01267  Uiso   1.00
C60    C     0.25280   0.64060   0.34330   0.01267  Uiso   1.00
C61    C     0.21330   0.66290   0.28620   0.01267  Uiso   1.00
C62    C     0.28330   0.65650   0.23380   0.01267  Uiso   1.00
C63    C     0.38840   0.64740   0.23850   0.01267  Uiso   1.00
C64    C     0.19120   0.64400   0.39100   0.01267  Uiso   1.00
C65    C     0.09350   0.65920   0.38040   0.01267  Uiso   1.00
C66    C     0.04030   0.66170   0.32470   0.01267  Uiso   1.00
C67    C     0.10920   0.66090   0.28160   0.01267  Uiso   1.00
C68    C     0.76140   0.45940   0.32610   0.01267  Uiso   1.00
C69    C     0.72590   0.84890   0.30350   0.01267  Uiso   1.00
C70    C     0.73390   0.94680   0.29620   0.01267  Uiso   1.00
C71    C     0.73790   0.02350   0.35280   0.01267  Uiso   1.00
C72    C     0.73870   0.11920   0.34490   0.01267  Uiso   1.00
C73    C     0.74440   0.16550   0.28870   0.01267  Uiso   1.00
C74    C     0.75060   0.10730   0.23810   0.01267  Uiso   1.00
C75    C     0.72820   0.01280   0.24830   0.01267  Uiso   1.00
C76    C     0.75240   0.19010   0.39320   0.01267  Uiso   1.00
C77    C     0.75000   0.29880   0.39300   0.01267  Uiso   1.00
C78    C     0.75030   0.34140   0.33180   0.01267  Uiso   1.00
C79    C     0.75800   0.28420   0.28490   0.01267  Uiso   1.00
C80    C     0.93000   0.66580   0.32250   0.01267  Uiso   1.00
C81    C     0.75970   0.78100   0.48430   0.01267  Uiso   1.00
C82    C     0.76940   0.81680   0.53810   0.01267  Uiso   1.00
C83    C     0.74900   0.74920   0.57850   0.01267  Uiso   1.00
C84    C     0.69070   0.65180   0.56610   0.01267  Uiso   1.00
C85    C     0.69670   0.62440   0.49750   0.01267  Uiso   1.00
C86    C     0.63010   0.53670   0.48750   0.01267  Uiso   1.00
C87    C     0.59640   0.47200   0.52550   0.01267  Uiso   1.00
C88    C     0.59650   0.49310   0.58940   0.01267  Uiso   1.00
C89    C     0.64940   0.58170   0.60090   0.01267  Uiso   1.00
C90    C     0.58220   0.62340   0.69560   0.01267  Uiso   1.00
C91    C     0.76570   0.58300   0.68540   0.01267  Uiso   1.00
C92    C     0.77630   0.60210   0.74670   0.01267  Uiso   1.00
C93    C     0.87230   0.58900   0.77450   0.01267  Uiso   1.00
C94    C     0.88900   0.61800   0.82440   0.01267  Uiso   1.00
C95    C     0.81370   0.63580   0.86120   0.01267  Uiso   1.00
C96    C     0.71500   0.65710   0.83920   0.01267  Uiso   1.00
C97    C     0.69730   0.62600   0.77780   0.01267  Uiso   1.00
C98    C     0.60440   0.63840   0.75950   0.01267  Uiso   1.00
C99    C     0.51920   0.66650   0.79370   0.01267  Uiso   1.00
C100   C     0.54050   0.68280   0.85090   0.01267  Uiso   1.00
C101   C     0.62080   0.66510   0.87060   0.01267  Uiso   1.00
C102   C     0.63500   0.66610   0.94250   0.01267  Uiso   1.00
C103   C     0.81160   0.65010   0.92790   0.01267  Uiso   1.00
C104   C     0.76400   0.71340   0.02240   0.01267  Uiso   1.00
C105   C     0.81480   0.82200   0.03070   0.01267  Uiso   1.00
C106   C     0.85270   0.86920   0.09210   0.01267  Uiso   1.00
C107   C     0.80180   0.78070   0.14090   0.01267  Uiso   1.00
C108   C     0.77750   0.66120   0.11817   0.01267  Uiso   1.00
C109   C     0.74340   0.64320   0.06510   0.01267  Uiso   1.00
C110   C     0.69650   0.54180   0.04990   0.01267  Uiso   1.00
C111   C     0.66760   0.48150   0.09520   0.01267  Uiso   1.00
C112   C     0.69690   0.51320   0.14210   0.01267  Uiso   1.00
N5     N     0.71930   0.69030   0.46850   0.01267  Uiso   1.00
N6     N     0.67400   0.59710   0.66830   0.01267  Uiso   1.00
N7     N     0.74740   0.67620   0.95750   0.01267  Uiso   1.00
N8     N     0.73430   0.60480   0.16550   0.01267  Uiso   1.00
O13    O     0.57960   0.63310   0.35620   0.01267  Uiso   1.00
O14    O     0.58510   0.61960   0.26150   0.01267  Uiso   1.00
O15    O     0.75440   0.50550   0.36920   0.01267  Uiso   1.00
O16    O     0.75320   0.49350   0.27760   0.01267  Uiso   1.00
O17    O     0.71920   0.80460   0.35770   0.01267  Uiso   1.00
O18    O     0.73820   0.79570   0.25670   0.01267  Uiso   1.00
O19    O     0.88060   0.67190   0.36670   0.01267  Uiso   1.00
O20    O     0.89980   0.65080   0.26880   0.01267  Uiso   1.00
O21    O     0.83950   0.55530   0.65710   0.01267  Uiso   1.00
O22    O     0.50350   0.64800   0.67520   0.01267  Uiso   1.00
O23    O     0.92280   0.65890   0.95030   0.01267  Uiso   1.00
O24    O     0.57240   0.71700   0.97160   0.01267  Uiso   1.00
