data_CUNXIS10_clean
_audit_creation_date              2014-07-02
_audit_creation_method            'Materials Studio'
_symmetry_space_group_name_H-M    'P1'
_symmetry_Int_Tables_number       1
_symmetry_cell_setting            triclinic
loop_
_symmetry_equiv_pos_as_xyz
  x,y,z
_cell_length_a                    8.6680
_cell_length_b                    9.1860
_cell_length_c                    17.5580
_cell_angle_alpha                 90.0000
_cell_angle_beta                  90.0000
_cell_angle_gamma                 107.7500
loop_
_atom_site_label
_atom_site_type_symbol
_atom_site_fract_x
_atom_site_fract_y
_atom_site_fract_z
_atom_site_U_iso_or_equiv
_atom_site_adp_type
_atom_site_occupancy
Al1    Al    0.91670   0.71500   0.70270   0.01267  Uiso   1.00
Al2    Al    0.85730   0.84490   0.88870   0.01267  Uiso   1.00
Al3    Al    0.46420   0.81960   0.67640   0.01267  Uiso   1.00
Al4    Al    0.58330   0.78500   0.20270   0.01267  Uiso   1.00
Al5    Al    0.64270   0.65510   0.38870   0.01267  Uiso   1.00
Al6    Al    0.03580   0.68040   0.17640   0.01267  Uiso   1.00
Al7    Al    0.08330   0.28500   0.29730   0.01267  Uiso   1.00
Al8    Al    0.14270   0.15510   0.11130   0.01267  Uiso   1.00
Al9    Al    0.53580   0.18040   0.32360   0.01267  Uiso   1.00
Al10   Al    0.41670   0.21500   0.79730   0.01267  Uiso   1.00
Al11   Al    0.35730   0.34490   0.61130   0.01267  Uiso   1.00
Al12   Al    0.96420   0.31960   0.82360   0.01267  Uiso   1.00
P1     P     0.64030   0.65250   0.57420   0.01267  Uiso   1.00
P2     P     0.18360   0.53460   0.70560   0.01267  Uiso   1.00
P3     P     0.72470   0.51040   0.83050   0.01267  Uiso   1.00
P4     P     0.85970   0.84750   0.07420   0.01267  Uiso   1.00
P5     P     0.31640   0.96540   0.20560   0.01267  Uiso   1.00
P6     P     0.77530   0.98960   0.33050   0.01267  Uiso   1.00
P7     P     0.35970   0.34750   0.42580   0.01267  Uiso   1.00
P8     P     0.81640   0.46540   0.29440   0.01267  Uiso   1.00
P9     P     0.27530   0.48960   0.16950   0.01267  Uiso   1.00
P10    P     0.14030   0.15250   0.92580   0.01267  Uiso   1.00
P11    P     0.68360   0.03460   0.79440   0.01267  Uiso   1.00
P12    P     0.22470   0.01040   0.66950   0.01267  Uiso   1.00
O1     O     0.95170   0.81920   0.79340   0.01267  Uiso   1.00
O2     O     0.79650   0.70660   0.61930   0.01267  Uiso   1.00
O3     O     0.74830   0.56170   0.74740   0.01267  Uiso   1.00
O4     O     0.04740   0.59940   0.68690   0.01267  Uiso   1.00
O5     O     0.56070   0.39080   0.84230   0.01267  Uiso   1.00
O6     O     0.53480   0.75410   0.59470   0.01267  Uiso   1.00
O7     O     0.13540   0.42390   0.77260   0.01267  Uiso   1.00
O8     O     0.85860   0.44130   0.85430   0.01267  Uiso   1.00
O9     O     0.33690   0.66570   0.72740   0.01267  Uiso   1.00
O10    O     0.73420   0.64450   0.88370   0.01267  Uiso   1.00
O11    O     0.54830   0.48860   0.59390   0.01267  Uiso   1.00
O12    O     0.68400   0.67280   0.49100   0.01267  Uiso   1.00
O13    O     0.22050   0.44960   0.63710   0.01267  Uiso   1.00
O14    O     0.54830   0.68080   0.29340   0.01267  Uiso   1.00
O15    O     0.70350   0.79340   0.11930   0.01267  Uiso   1.00
O16    O     0.75170   0.93830   0.24740   0.01267  Uiso   1.00
O17    O     0.45260   0.90060   0.18690   0.01267  Uiso   1.00
O18    O     0.93930   0.10920   0.34230   0.01267  Uiso   1.00
O19    O     0.96520   0.74590   0.09470   0.01267  Uiso   1.00
O20    O     0.36460   0.07610   0.27260   0.01267  Uiso   1.00
O21    O     0.64140   0.05870   0.35430   0.01267  Uiso   1.00
O22    O     0.16310   0.83430   0.22740   0.01267  Uiso   1.00
O23    O     0.76580   0.85550   0.38370   0.01267  Uiso   1.00
O24    O     0.95170   0.01140   0.09390   0.01267  Uiso   1.00
O25    O     0.81600   0.82720   0.99100   0.01267  Uiso   1.00
O26    O     0.27950   0.05040   0.13710   0.01267  Uiso   1.00
O27    O     0.04830   0.18080   0.20660   0.01267  Uiso   1.00
O28    O     0.20350   0.29340   0.38070   0.01267  Uiso   1.00
O29    O     0.25170   0.43830   0.25260   0.01267  Uiso   1.00
O30    O     0.95260   0.40060   0.31310   0.01267  Uiso   1.00
O31    O     0.43930   0.60920   0.15770   0.01267  Uiso   1.00
O32    O     0.46520   0.24590   0.40530   0.01267  Uiso   1.00
O33    O     0.86460   0.57610   0.22740   0.01267  Uiso   1.00
O34    O     0.14140   0.55870   0.14570   0.01267  Uiso   1.00
O35    O     0.66310   0.33430   0.27260   0.01267  Uiso   1.00
O36    O     0.26580   0.35550   0.11630   0.01267  Uiso   1.00
O37    O     0.45170   0.51140   0.40610   0.01267  Uiso   1.00
O38    O     0.31600   0.32720   0.50900   0.01267  Uiso   1.00
O39    O     0.77950   0.55040   0.36290   0.01267  Uiso   1.00
O40    O     0.45170   0.31920   0.70660   0.01267  Uiso   1.00
O41    O     0.29650   0.20660   0.88070   0.01267  Uiso   1.00
O42    O     0.24830   0.06170   0.75260   0.01267  Uiso   1.00
O43    O     0.54740   0.09940   0.81310   0.01267  Uiso   1.00
O44    O     0.06070   0.89080   0.65770   0.01267  Uiso   1.00
O45    O     0.03480   0.25410   0.90530   0.01267  Uiso   1.00
O46    O     0.63540   0.92390   0.72740   0.01267  Uiso   1.00
O47    O     0.35860   0.94130   0.64570   0.01267  Uiso   1.00
O48    O     0.83690   0.16570   0.77260   0.01267  Uiso   1.00
O49    O     0.23420   0.14450   0.61630   0.01267  Uiso   1.00
O50    O     0.04830   0.98860   0.90610   0.01267  Uiso   1.00
O51    O     0.18400   0.17280   0.00900   0.01267  Uiso   1.00
O52    O     0.72050   0.94960   0.86290   0.01267  Uiso   1.00
