data_DABWUA_clean
_audit_creation_date              2014-07-02
_audit_creation_method            'Materials Studio'
_symmetry_space_group_name_H-M    'P1'
_symmetry_Int_Tables_number       1
_symmetry_cell_setting            triclinic
loop_
_symmetry_equiv_pos_as_xyz
  x,y,z
_cell_length_a                    13.3191
_cell_length_b                    14.0087
_cell_length_c                    14.8297
_cell_angle_alpha                 93.1160
_cell_angle_beta                  90.0000
_cell_angle_gamma                 90.0000
loop_
_atom_site_label
_atom_site_type_symbol
_atom_site_fract_x
_atom_site_fract_y
_atom_site_fract_z
_atom_site_U_iso_or_equiv
_atom_site_adp_type
_atom_site_occupancy
Cu1    Cu    0.00000   0.50000   0.50000   0.01267  Uiso   1.00
Cu2    Cu    0.50000   0.50000   1.00000   0.01267  Uiso   1.00
Cu3    Cu    0.00000   0.00000   0.00000   0.01267  Uiso   1.00
Cu4    Cu    0.50000   0.00000   0.50000   0.01267  Uiso   1.00
H1     H     0.69120   0.70180   0.88960   0.01267  Uiso   1.00
H2     H     0.69530   0.91130   0.71440   0.01267  Uiso   1.00
H3     H     0.45570   0.74140   0.72760   0.01267  Uiso   1.00
H4     H     0.70630   0.91630   0.99640   0.01267  Uiso   1.00
H5     H     0.70020   0.99160   0.92210   0.01267  Uiso   1.00
H6     H     0.77590   0.00660   0.00260   0.01267  Uiso   1.00
H7     H     0.79420   0.74760   0.65960   0.01267  Uiso   1.00
H8     H     0.83780   0.63510   0.55000   0.01267  Uiso   1.00
H9     H     0.08510   0.58080   0.67220   0.01267  Uiso   1.00
H10    H     0.05090   0.69040   0.78650   0.01267  Uiso   1.00
H11    H     0.19120   0.29820   0.61040   0.01267  Uiso   1.00
H12    H     0.19530   0.08870   0.78560   0.01267  Uiso   1.00
H13    H     0.95570   0.25860   0.77240   0.01267  Uiso   1.00
H14    H     0.20630   0.08370   0.50360   0.01267  Uiso   1.00
H15    H     0.20020   0.00840   0.57790   0.01267  Uiso   1.00
H16    H     0.27590   0.99340   0.49740   0.01267  Uiso   1.00
H17    H     0.29420   0.25240   0.84040   0.01267  Uiso   1.00
H18    H     0.33780   0.36490   0.95000   0.01267  Uiso   1.00
H19    H     0.58510   0.41920   0.82780   0.01267  Uiso   1.00
H20    H     0.55090   0.30960   0.71350   0.01267  Uiso   1.00
H21    H     0.30880   0.29820   0.11040   0.01267  Uiso   1.00
H22    H     0.30470   0.08870   0.28560   0.01267  Uiso   1.00
H23    H     0.54430   0.25860   0.27240   0.01267  Uiso   1.00
H24    H     0.29370   0.08370   0.00360   0.01267  Uiso   1.00
H25    H     0.29980   0.00840   0.07790   0.01267  Uiso   1.00
H26    H     0.22410   0.99340   0.99740   0.01267  Uiso   1.00
H27    H     0.20580   0.25240   0.34040   0.01267  Uiso   1.00
H28    H     0.16220   0.36490   0.45000   0.01267  Uiso   1.00
H29    H     0.91490   0.41920   0.32780   0.01267  Uiso   1.00
H30    H     0.94910   0.30960   0.21350   0.01267  Uiso   1.00
H31    H     0.80880   0.70180   0.38960   0.01267  Uiso   1.00
H32    H     0.80470   0.91130   0.21440   0.01267  Uiso   1.00
H33    H     0.04430   0.74140   0.22760   0.01267  Uiso   1.00
H34    H     0.79370   0.91630   0.49640   0.01267  Uiso   1.00
H35    H     0.79980   0.99160   0.42210   0.01267  Uiso   1.00
H36    H     0.72410   0.00660   0.50260   0.01267  Uiso   1.00
H37    H     0.70580   0.74760   0.15960   0.01267  Uiso   1.00
H38    H     0.66220   0.63510   0.05000   0.01267  Uiso   1.00
H39    H     0.41490   0.58080   0.17220   0.01267  Uiso   1.00
H40    H     0.44910   0.69040   0.28650   0.01267  Uiso   1.00
C1     C     0.50800   0.63320   0.86190   0.01267  Uiso   1.00
C2     C     0.56290   0.71068   0.81716   0.01267  Uiso   1.00
C3     C     0.65925   0.73546   0.84558   0.01267  Uiso   1.00
C4     C     0.70676   0.81100   0.80732   0.01267  Uiso   1.00
C5     C     0.66193   0.86093   0.73973   0.01267  Uiso   1.00
C6     C     0.56790   0.83480   0.71099   0.01267  Uiso   1.00
C7     C     0.51900   0.75950   0.74866   0.01267  Uiso   1.00
C8     C     0.52140   0.88550   0.63340   0.01267  Uiso   1.00
C9     C     0.74430   0.95990   0.96220   0.01267  Uiso   1.00
C10    C     0.82454   0.90485   0.90705   0.01267  Uiso   1.00
C11    C     0.89832   0.80725   0.80925   0.01267  Uiso   1.00
C12    C     0.91810   0.73375   0.73630   0.01267  Uiso   1.00
C13    C     0.85450   0.71470   0.66380   0.01267  Uiso   1.00
C14    C     0.88120   0.64730   0.59840   0.01267  Uiso   1.00
C15    C     0.02570   0.61540   0.66970   0.01267  Uiso   1.00
C16    C     0.00610   0.68110   0.73880   0.01267  Uiso   1.00
C17    C     0.00800   0.36680   0.63810   0.01267  Uiso   1.00
C18    C     0.06290   0.28932   0.68284   0.01267  Uiso   1.00
C19    C     0.15925   0.26454   0.65442   0.01267  Uiso   1.00
C20    C     0.20676   0.18900   0.69268   0.01267  Uiso   1.00
C21    C     0.16193   0.13907   0.76027   0.01267  Uiso   1.00
C22    C     0.06790   0.16520   0.78901   0.01267  Uiso   1.00
C23    C     0.01900   0.24050   0.75134   0.01267  Uiso   1.00
C24    C     0.02140   0.11450   0.86660   0.01267  Uiso   1.00
C25    C     0.24430   0.04010   0.53780   0.01267  Uiso   1.00
C26    C     0.32454   0.09515   0.59295   0.01267  Uiso   1.00
C27    C     0.39832   0.19275   0.69075   0.01267  Uiso   1.00
C28    C     0.41810   0.26625   0.76370   0.01267  Uiso   1.00
C29    C     0.35450   0.28530   0.83620   0.01267  Uiso   1.00
C30    C     0.38120   0.35270   0.90160   0.01267  Uiso   1.00
C31    C     0.52570   0.38460   0.83030   0.01267  Uiso   1.00
C32    C     0.50610   0.31890   0.76120   0.01267  Uiso   1.00
C33    C     0.49200   0.36680   0.13810   0.01267  Uiso   1.00
C34    C     0.43710   0.28932   0.18284   0.01267  Uiso   1.00
C35    C     0.34075   0.26454   0.15442   0.01267  Uiso   1.00
C36    C     0.29324   0.18900   0.19268   0.01267  Uiso   1.00
C37    C     0.33807   0.13907   0.26027   0.01267  Uiso   1.00
C38    C     0.43210   0.16520   0.28901   0.01267  Uiso   1.00
C39    C     0.48100   0.24050   0.25134   0.01267  Uiso   1.00
C40    C     0.47860   0.11450   0.36660   0.01267  Uiso   1.00
C41    C     0.25570   0.04010   0.03780   0.01267  Uiso   1.00
C42    C     0.17546   0.09515   0.09295   0.01267  Uiso   1.00
C43    C     0.10168   0.19275   0.19075   0.01267  Uiso   1.00
C44    C     0.08190   0.26625   0.26370   0.01267  Uiso   1.00
C45    C     0.14550   0.28530   0.33620   0.01267  Uiso   1.00
C46    C     0.11880   0.35270   0.40160   0.01267  Uiso   1.00
C47    C     0.97430   0.38460   0.33030   0.01267  Uiso   1.00
C48    C     0.99390   0.31890   0.26120   0.01267  Uiso   1.00
C49    C     0.99200   0.63320   0.36190   0.01267  Uiso   1.00
C50    C     0.93710   0.71068   0.31716   0.01267  Uiso   1.00
C51    C     0.84075   0.73546   0.34558   0.01267  Uiso   1.00
C52    C     0.79324   0.81100   0.30732   0.01267  Uiso   1.00
C53    C     0.83807   0.86093   0.23973   0.01267  Uiso   1.00
C54    C     0.93210   0.83480   0.21099   0.01267  Uiso   1.00
C55    C     0.98100   0.75950   0.24866   0.01267  Uiso   1.00
C56    C     0.97860   0.88550   0.13340   0.01267  Uiso   1.00
C57    C     0.75570   0.95990   0.46220   0.01267  Uiso   1.00
C58    C     0.67546   0.90485   0.40705   0.01267  Uiso   1.00
C59    C     0.60168   0.80725   0.30925   0.01267  Uiso   1.00
C60    C     0.58190   0.73375   0.23630   0.01267  Uiso   1.00
C61    C     0.64550   0.71470   0.16380   0.01267  Uiso   1.00
C62    C     0.61880   0.64730   0.09840   0.01267  Uiso   1.00
C63    C     0.47430   0.61540   0.16970   0.01267  Uiso   1.00
C64    C     0.49390   0.68110   0.23880   0.01267  Uiso   1.00
N1     N     0.80573   0.83886   0.83875   0.01267  Uiso   1.00
N2     N     0.92146   0.91223   0.91735   0.01267  Uiso   1.00
N3     N     0.96873   0.85120   0.85570   0.01267  Uiso   1.00
N4     N     0.96710   0.59795   0.60067   0.01267  Uiso   1.00
N5     N     0.30573   0.16114   0.66125   0.01267  Uiso   1.00
N6     N     0.42146   0.08777   0.58265   0.01267  Uiso   1.00
N7     N     0.46873   0.14880   0.64430   0.01267  Uiso   1.00
N8     N     0.46710   0.40205   0.89933   0.01267  Uiso   1.00
N9     N     0.19427   0.16114   0.16125   0.01267  Uiso   1.00
N10    N     0.07854   0.08777   0.08265   0.01267  Uiso   1.00
N11    N     0.03127   0.14880   0.14430   0.01267  Uiso   1.00
N12    N     0.03290   0.40205   0.39933   0.01267  Uiso   1.00
N13    N     0.69427   0.83886   0.33875   0.01267  Uiso   1.00
N14    N     0.57854   0.91223   0.41735   0.01267  Uiso   1.00
N15    N     0.53127   0.85120   0.35570   0.01267  Uiso   1.00
N16    N     0.53290   0.59795   0.10067   0.01267  Uiso   1.00
O1     O     0.55682   0.58667   0.91489   0.01267  Uiso   1.00
O2     O     0.41970   0.61950   0.84390   0.01267  Uiso   1.00
O3     O     0.57176   0.95225   0.60292   0.01267  Uiso   1.00
O4     O     0.43813   0.86080   0.60250   0.01267  Uiso   1.00
O5     O     0.05682   0.41333   0.58511   0.01267  Uiso   1.00
O6     O     0.91970   0.38050   0.65610   0.01267  Uiso   1.00
O7     O     0.07176   0.04775   0.89708   0.01267  Uiso   1.00
O8     O     0.93813   0.13920   0.89750   0.01267  Uiso   1.00
O9     O     0.44318   0.41333   0.08511   0.01267  Uiso   1.00
O10    O     0.58030   0.38050   0.15610   0.01267  Uiso   1.00
O11    O     0.42824   0.04775   0.39708   0.01267  Uiso   1.00
O12    O     0.56187   0.13920   0.39750   0.01267  Uiso   1.00
O13    O     0.94318   0.58667   0.41489   0.01267  Uiso   1.00
O14    O     0.08030   0.61950   0.34390   0.01267  Uiso   1.00
O15    O     0.92824   0.95225   0.10292   0.01267  Uiso   1.00
O16    O     0.06187   0.86080   0.10250   0.01267  Uiso   1.00
