data_DARCUW_clean
_audit_creation_date              2014-07-02
_audit_creation_method            'Materials Studio'
_symmetry_space_group_name_H-M    'P1'
_symmetry_Int_Tables_number       1
_symmetry_cell_setting            triclinic
loop_
_symmetry_equiv_pos_as_xyz
  x,y,z
_cell_length_a                    10.4548
_cell_length_b                    14.3832
_cell_length_c                    23.3057
_cell_angle_alpha                 107.3480
_cell_angle_beta                  90.0000
_cell_angle_gamma                 90.0000
loop_
_atom_site_label
_atom_site_type_symbol
_atom_site_fract_x
_atom_site_fract_y
_atom_site_fract_z
_atom_site_U_iso_or_equiv
_atom_site_adp_type
_atom_site_occupancy
Yb1    Yb    0.93217   0.84792   0.77249   0.01267  Uiso   1.00
Yb2    Yb    0.93217   0.15208   0.72751   0.01267  Uiso   1.00
Yb3    Yb    0.06783   0.15208   0.22751   0.01267  Uiso   1.00
Yb4    Yb    0.06783   0.84792   0.27249   0.01267  Uiso   1.00
P1     P     0.86460   0.77190   0.37716   0.01267  Uiso   1.00
P2     P     0.86460   0.22810   0.12284   0.01267  Uiso   1.00
P3     P     0.13540   0.22810   0.62284   0.01267  Uiso   1.00
P4     P     0.13540   0.77190   0.87716   0.01267  Uiso   1.00
H1     H     0.88710   0.67960   0.47090   0.01267  Uiso   1.00
H2     H     0.90090   0.73350   0.57390   0.01267  Uiso   1.00
H3     H     0.87200   0.00950   0.56980   0.01267  Uiso   1.00
H4     H     0.86860   0.95470   0.46630   0.01267  Uiso   1.00
H5     H     0.61770   0.76380   0.43310   0.01267  Uiso   1.00
H6     H     0.40840   0.79320   0.40920   0.01267  Uiso   1.00
H7     H     0.53040   0.82020   0.25090   0.01267  Uiso   1.00
H8     H     0.73810   0.80380   0.27790   0.01267  Uiso   1.00
H9     H     0.09600   0.66500   0.35650   0.01267  Uiso   1.00
H10    H     0.15240   0.50390   0.32430   0.01267  Uiso   1.00
H11    H     0.78250   0.42640   0.31050   0.01267  Uiso   1.00
H12    H     0.72370   0.58760   0.34240   0.01267  Uiso   1.00
H13    H     0.88710   0.32040   0.02910   0.01267  Uiso   1.00
H14    H     0.90090   0.26650   0.92610   0.01267  Uiso   1.00
H15    H     0.87200   0.99050   0.93020   0.01267  Uiso   1.00
H16    H     0.86860   0.04530   0.03370   0.01267  Uiso   1.00
H17    H     0.61770   0.23620   0.06690   0.01267  Uiso   1.00
H18    H     0.40840   0.20680   0.09080   0.01267  Uiso   1.00
H19    H     0.53040   0.17980   0.24910   0.01267  Uiso   1.00
H20    H     0.73810   0.19620   0.22210   0.01267  Uiso   1.00
H21    H     0.09600   0.33500   0.14350   0.01267  Uiso   1.00
H22    H     0.15240   0.49610   0.17570   0.01267  Uiso   1.00
H23    H     0.78250   0.57360   0.18950   0.01267  Uiso   1.00
H24    H     0.72370   0.41240   0.15760   0.01267  Uiso   1.00
H25    H     0.11290   0.32040   0.52910   0.01267  Uiso   1.00
H26    H     0.09910   0.26650   0.42610   0.01267  Uiso   1.00
H27    H     0.12800   0.99050   0.43020   0.01267  Uiso   1.00
H28    H     0.13140   0.04530   0.53370   0.01267  Uiso   1.00
H29    H     0.38230   0.23620   0.56690   0.01267  Uiso   1.00
H30    H     0.59160   0.20680   0.59080   0.01267  Uiso   1.00
H31    H     0.46960   0.17980   0.74910   0.01267  Uiso   1.00
H32    H     0.26190   0.19620   0.72210   0.01267  Uiso   1.00
H33    H     0.90400   0.33500   0.64350   0.01267  Uiso   1.00
H34    H     0.84760   0.49610   0.67570   0.01267  Uiso   1.00
H35    H     0.21750   0.57360   0.68950   0.01267  Uiso   1.00
H36    H     0.27630   0.41240   0.65760   0.01267  Uiso   1.00
H37    H     0.11290   0.67960   0.97090   0.01267  Uiso   1.00
H38    H     0.09910   0.73350   0.07390   0.01267  Uiso   1.00
H39    H     0.12800   0.00950   0.06980   0.01267  Uiso   1.00
H40    H     0.13140   0.95470   0.96630   0.01267  Uiso   1.00
H41    H     0.38230   0.76380   0.93310   0.01267  Uiso   1.00
H42    H     0.59160   0.79320   0.90920   0.01267  Uiso   1.00
H43    H     0.46960   0.82020   0.75090   0.01267  Uiso   1.00
H44    H     0.26190   0.80380   0.77790   0.01267  Uiso   1.00
H45    H     0.90400   0.66500   0.85650   0.01267  Uiso   1.00
H46    H     0.84760   0.50390   0.82430   0.01267  Uiso   1.00
H47    H     0.21750   0.42640   0.81050   0.01267  Uiso   1.00
H48    H     0.27630   0.58760   0.84240   0.01267  Uiso   1.00
H49    H     0.24340   0.00000   0.75000   0.01267  Uiso   1.00
H50    H     0.75660   0.00000   0.25000   0.01267  Uiso   1.00
C1     C     0.87420   0.81080   0.45710   0.01267  Uiso   1.00
C2     C     0.88470   0.74610   0.49060   0.01267  Uiso   1.00
C3     C     0.89170   0.77820   0.55240   0.01267  Uiso   1.00
C4     C     0.88520   0.87710   0.58260   0.01267  Uiso   1.00
C5     C     0.87580   0.94300   0.55000   0.01267  Uiso   1.00
C6     C     0.87230   0.90990   0.48790   0.01267  Uiso   1.00
C7     C     0.88790   0.91170   0.65010   0.01267  Uiso   1.00
C8     C     0.70080   0.78560   0.35840   0.01267  Uiso   1.00
C9     C     0.59990   0.77830   0.39760   0.01267  Uiso   1.00
C10    C     0.47450   0.79300   0.38260   0.01267  Uiso   1.00
C11    C     0.44850   0.80750   0.32700   0.01267  Uiso   1.00
C12    C     0.54810   0.81090   0.28790   0.01267  Uiso   1.00
C13    C     0.67210   0.80060   0.30400   0.01267  Uiso   1.00
C14    C     0.31340   0.82430   0.31110   0.01267  Uiso   1.00
C15    C     0.90480   0.64480   0.35230   0.01267  Uiso   1.00
C16    C     0.03260   0.61750   0.34690   0.01267  Uiso   1.00
C17    C     0.06620   0.52060   0.32740   0.01267  Uiso   1.00
C18    C     0.97570   0.44770   0.31230   0.01267  Uiso   1.00
C19    C     0.84510   0.47450   0.31910   0.01267  Uiso   1.00
C20    C     0.80990   0.57080   0.33840   0.01267  Uiso   1.00
C21    C     0.00960   0.34300   0.28670   0.01267  Uiso   1.00
C22    C     0.87420   0.18920   0.04290   0.01267  Uiso   1.00
C23    C     0.88470   0.25390   0.00940   0.01267  Uiso   1.00
C24    C     0.89170   0.22180   0.94760   0.01267  Uiso   1.00
C25    C     0.88520   0.12290   0.91740   0.01267  Uiso   1.00
C26    C     0.87580   0.05700   0.95000   0.01267  Uiso   1.00
C27    C     0.87230   0.09010   0.01210   0.01267  Uiso   1.00
C28    C     0.88790   0.08830   0.84990   0.01267  Uiso   1.00
C29    C     0.70080   0.21440   0.14160   0.01267  Uiso   1.00
C30    C     0.59990   0.22170   0.10240   0.01267  Uiso   1.00
C31    C     0.47450   0.20700   0.11740   0.01267  Uiso   1.00
C32    C     0.44850   0.19250   0.17300   0.01267  Uiso   1.00
C33    C     0.54810   0.18910   0.21210   0.01267  Uiso   1.00
C34    C     0.67210   0.19940   0.19600   0.01267  Uiso   1.00
C35    C     0.31340   0.17570   0.18890   0.01267  Uiso   1.00
C36    C     0.90480   0.35520   0.14770   0.01267  Uiso   1.00
C37    C     0.03260   0.38250   0.15310   0.01267  Uiso   1.00
C38    C     0.06620   0.47940   0.17260   0.01267  Uiso   1.00
C39    C     0.97570   0.55230   0.18770   0.01267  Uiso   1.00
C40    C     0.84510   0.52550   0.18090   0.01267  Uiso   1.00
C41    C     0.80990   0.42920   0.16160   0.01267  Uiso   1.00
C42    C     0.00960   0.65700   0.21330   0.01267  Uiso   1.00
C43    C     0.12580   0.18920   0.54290   0.01267  Uiso   1.00
C44    C     0.11530   0.25390   0.50940   0.01267  Uiso   1.00
C45    C     0.10830   0.22180   0.44760   0.01267  Uiso   1.00
C46    C     0.11480   0.12290   0.41740   0.01267  Uiso   1.00
C47    C     0.12420   0.05700   0.45000   0.01267  Uiso   1.00
C48    C     0.12770   0.09010   0.51210   0.01267  Uiso   1.00
C49    C     0.11210   0.08830   0.34990   0.01267  Uiso   1.00
C50    C     0.29920   0.21440   0.64160   0.01267  Uiso   1.00
C51    C     0.40010   0.22170   0.60240   0.01267  Uiso   1.00
C52    C     0.52550   0.20700   0.61740   0.01267  Uiso   1.00
C53    C     0.55150   0.19250   0.67300   0.01267  Uiso   1.00
C54    C     0.45190   0.18910   0.71210   0.01267  Uiso   1.00
C55    C     0.32790   0.19940   0.69600   0.01267  Uiso   1.00
C56    C     0.68660   0.17570   0.68890   0.01267  Uiso   1.00
C57    C     0.09520   0.35520   0.64770   0.01267  Uiso   1.00
C58    C     0.96740   0.38250   0.65310   0.01267  Uiso   1.00
C59    C     0.93380   0.47940   0.67260   0.01267  Uiso   1.00
C60    C     0.02430   0.55230   0.68770   0.01267  Uiso   1.00
C61    C     0.15490   0.52550   0.68090   0.01267  Uiso   1.00
C62    C     0.19010   0.42920   0.66160   0.01267  Uiso   1.00
C63    C     0.99040   0.65700   0.71330   0.01267  Uiso   1.00
C64    C     0.12580   0.81080   0.95710   0.01267  Uiso   1.00
C65    C     0.11530   0.74610   0.99060   0.01267  Uiso   1.00
C66    C     0.10830   0.77820   0.05240   0.01267  Uiso   1.00
C67    C     0.11480   0.87710   0.08260   0.01267  Uiso   1.00
C68    C     0.12420   0.94300   0.05000   0.01267  Uiso   1.00
C69    C     0.12770   0.90990   0.98790   0.01267  Uiso   1.00
C70    C     0.11210   0.91170   0.15010   0.01267  Uiso   1.00
C71    C     0.29920   0.78560   0.85840   0.01267  Uiso   1.00
C72    C     0.40010   0.77830   0.89760   0.01267  Uiso   1.00
C73    C     0.52550   0.79300   0.88260   0.01267  Uiso   1.00
C74    C     0.55150   0.80750   0.82700   0.01267  Uiso   1.00
C75    C     0.45190   0.81090   0.78790   0.01267  Uiso   1.00
C76    C     0.32790   0.80060   0.80400   0.01267  Uiso   1.00
C77    C     0.68660   0.82430   0.81110   0.01267  Uiso   1.00
C78    C     0.09520   0.64480   0.85230   0.01267  Uiso   1.00
C79    C     0.96740   0.61750   0.84690   0.01267  Uiso   1.00
C80    C     0.93380   0.52060   0.82740   0.01267  Uiso   1.00
C81    C     0.02430   0.44770   0.81230   0.01267  Uiso   1.00
C82    C     0.15490   0.47450   0.81910   0.01267  Uiso   1.00
C83    C     0.19010   0.57080   0.83840   0.01267  Uiso   1.00
C84    C     0.99040   0.34300   0.78670   0.01267  Uiso   1.00
C85    C     0.15440   0.00000   0.75000   0.01267  Uiso   1.00
C86    C     0.84560   0.00000   0.25000   0.01267  Uiso   1.00
O1     O     0.89780   0.84790   0.67670   0.01267  Uiso   1.00
O2     O     0.87970   0.00110   0.67620   0.01267  Uiso   1.00
O3     O     0.22120   0.81370   0.34270   0.01267  Uiso   1.00
O4     O     0.29470   0.84760   0.26280   0.01267  Uiso   1.00
O5     O     0.12120   0.32090   0.27070   0.01267  Uiso   1.00
O6     O     0.92150   0.27930   0.27980   0.01267  Uiso   1.00
O7     O     0.95160   0.83140   0.35060   0.01267  Uiso   1.00
O8     O     0.10920   0.92820   0.75910   0.01267  Uiso   1.00
O9     O     0.89780   0.15210   0.82330   0.01267  Uiso   1.00
O10    O     0.87970   0.99890   0.82380   0.01267  Uiso   1.00
O11    O     0.22120   0.18630   0.15730   0.01267  Uiso   1.00
O12    O     0.29470   0.15240   0.23720   0.01267  Uiso   1.00
O13    O     0.12120   0.67910   0.22930   0.01267  Uiso   1.00
O14    O     0.92150   0.72070   0.22020   0.01267  Uiso   1.00
O15    O     0.95160   0.16860   0.14940   0.01267  Uiso   1.00
O16    O     0.10920   0.07180   0.74090   0.01267  Uiso   1.00
O17    O     0.10220   0.15210   0.32330   0.01267  Uiso   1.00
O18    O     0.12030   0.99890   0.32380   0.01267  Uiso   1.00
O19    O     0.77880   0.18630   0.65730   0.01267  Uiso   1.00
O20    O     0.70530   0.15240   0.73720   0.01267  Uiso   1.00
O21    O     0.87880   0.67910   0.72930   0.01267  Uiso   1.00
O22    O     0.07850   0.72070   0.72020   0.01267  Uiso   1.00
O23    O     0.04840   0.16860   0.64940   0.01267  Uiso   1.00
O24    O     0.89080   0.07180   0.24090   0.01267  Uiso   1.00
O25    O     0.10220   0.84790   0.17670   0.01267  Uiso   1.00
O26    O     0.12030   0.00110   0.17620   0.01267  Uiso   1.00
O27    O     0.77880   0.81370   0.84270   0.01267  Uiso   1.00
O28    O     0.70530   0.84760   0.76280   0.01267  Uiso   1.00
O29    O     0.87880   0.32090   0.77070   0.01267  Uiso   1.00
O30    O     0.07850   0.27930   0.77980   0.01267  Uiso   1.00
O31    O     0.04840   0.83140   0.85060   0.01267  Uiso   1.00
O32    O     0.89080   0.92820   0.25910   0.01267  Uiso   1.00
