data_DARCOQ_clean
_audit_creation_date              2014-07-02
_audit_creation_method            'Materials Studio'
_symmetry_space_group_name_H-M    'P1'
_symmetry_Int_Tables_number       1
_symmetry_cell_setting            triclinic
loop_
_symmetry_equiv_pos_as_xyz
  x,y,z
_cell_length_a                    10.5460
_cell_length_b                    14.5390
_cell_length_c                    23.3780
_cell_angle_alpha                 107.2310
_cell_angle_beta                  90.0000
_cell_angle_gamma                 90.0000
loop_
_atom_site_label
_atom_site_type_symbol
_atom_site_fract_x
_atom_site_fract_y
_atom_site_fract_z
_atom_site_U_iso_or_equiv
_atom_site_adp_type
_atom_site_occupancy
Y1     Y     0.56710   0.65425   0.72764   0.01267  Uiso   1.00
Y2     Y     0.56710   0.34575   0.77236   0.01267  Uiso   1.00
Y3     Y     0.43290   0.34575   0.27236   0.01267  Uiso   1.00
Y4     Y     0.43290   0.65425   0.22764   0.01267  Uiso   1.00
P1     P     0.36081   0.26829   0.87779   0.01267  Uiso   1.00
P2     P     0.36081   0.73171   0.62221   0.01267  Uiso   1.00
P3     P     0.63919   0.73171   0.12221   0.01267  Uiso   1.00
P4     P     0.63919   0.26829   0.37779   0.01267  Uiso   1.00
H1     H     0.58640   0.16420   0.85710   0.01267  Uiso   1.00
H2     H     0.64690   0.00160   0.82180   0.01267  Uiso   1.00
H3     H     0.27940   0.92790   0.81340   0.01267  Uiso   1.00
H4     H     0.22290   0.08740   0.84620   0.01267  Uiso   1.00
H5     H     0.23590   0.30210   0.77980   0.01267  Uiso   1.00
H6     H     0.02900   0.32010   0.75350   0.01267  Uiso   1.00
H7     H     0.90610   0.27650   0.90510   0.01267  Uiso   1.00
H8     H     0.11540   0.26170   0.93270   0.01267  Uiso   1.00
H9     H     0.38000   0.18040   0.97380   0.01267  Uiso   1.00
H10    H     0.38710   0.23800   0.07640   0.01267  Uiso   1.00
H11    H     0.37370   0.50770   0.06780   0.01267  Uiso   1.00
H12    H     0.36180   0.45070   0.96510   0.01267  Uiso   1.00
H13    H     0.58640   0.83580   0.64290   0.01267  Uiso   1.00
H14    H     0.64690   0.99840   0.67820   0.01267  Uiso   1.00
H15    H     0.27940   0.07210   0.68660   0.01267  Uiso   1.00
H16    H     0.22290   0.91260   0.65380   0.01267  Uiso   1.00
H17    H     0.23590   0.69790   0.72020   0.01267  Uiso   1.00
H18    H     0.02900   0.67990   0.74650   0.01267  Uiso   1.00
H19    H     0.90610   0.72350   0.59490   0.01267  Uiso   1.00
H20    H     0.11540   0.73830   0.56730   0.01267  Uiso   1.00
H21    H     0.38000   0.81960   0.52620   0.01267  Uiso   1.00
H22    H     0.38710   0.76200   0.42360   0.01267  Uiso   1.00
H23    H     0.37370   0.49230   0.43220   0.01267  Uiso   1.00
H24    H     0.36180   0.54930   0.53490   0.01267  Uiso   1.00
H25    H     0.41360   0.83580   0.14290   0.01267  Uiso   1.00
H26    H     0.35310   0.99840   0.17820   0.01267  Uiso   1.00
H27    H     0.72060   0.07210   0.18660   0.01267  Uiso   1.00
H28    H     0.77710   0.91260   0.15380   0.01267  Uiso   1.00
H29    H     0.76410   0.69790   0.22020   0.01267  Uiso   1.00
H30    H     0.97100   0.67990   0.24650   0.01267  Uiso   1.00
H31    H     0.09390   0.72350   0.09490   0.01267  Uiso   1.00
H32    H     0.88460   0.73830   0.06730   0.01267  Uiso   1.00
H33    H     0.62000   0.81960   0.02620   0.01267  Uiso   1.00
H34    H     0.61290   0.76200   0.92360   0.01267  Uiso   1.00
H35    H     0.62630   0.49230   0.93220   0.01267  Uiso   1.00
H36    H     0.63820   0.54930   0.03490   0.01267  Uiso   1.00
H37    H     0.41360   0.16420   0.35710   0.01267  Uiso   1.00
H38    H     0.35310   0.00160   0.32180   0.01267  Uiso   1.00
H39    H     0.72060   0.92790   0.31340   0.01267  Uiso   1.00
H40    H     0.77710   0.08740   0.34620   0.01267  Uiso   1.00
H41    H     0.76410   0.30210   0.27980   0.01267  Uiso   1.00
H42    H     0.97100   0.32010   0.25350   0.01267  Uiso   1.00
H43    H     0.09390   0.27650   0.40510   0.01267  Uiso   1.00
H44    H     0.88460   0.26170   0.43270   0.01267  Uiso   1.00
H45    H     0.62000   0.18040   0.47380   0.01267  Uiso   1.00
H46    H     0.61290   0.23800   0.57640   0.01267  Uiso   1.00
H47    H     0.62630   0.50770   0.56780   0.01267  Uiso   1.00
H48    H     0.63820   0.45070   0.46510   0.01267  Uiso   1.00
H49    H     0.25360   0.50000   0.75000   0.01267  Uiso   1.00
H50    H     0.74640   0.50000   0.25000   0.01267  Uiso   1.00
C1     C     0.39800   0.14260   0.85413   0.01267  Uiso   1.00
C2     C     0.52460   0.11650   0.84770   0.01267  Uiso   1.00
C3     C     0.56180   0.01880   0.82690   0.01267  Uiso   1.00
C4     C     0.46630   0.94910   0.81447   0.01267  Uiso   1.00
C5     C     0.34200   0.97500   0.82170   0.01267  Uiso   1.00
C6     C     0.30830   0.07090   0.84140   0.01267  Uiso   1.00
C7     C     0.50650   0.84390   0.78805   0.01267  Uiso   1.00
C8     C     0.19880   0.28130   0.85952   0.01267  Uiso   1.00
C9     C     0.17060   0.29830   0.80570   0.01267  Uiso   1.00
C10    C     0.04640   0.30970   0.79010   0.01267  Uiso   1.00
C11    C     0.94830   0.30570   0.82795   0.01267  Uiso   1.00
C12    C     0.97240   0.28410   0.88060   0.01267  Uiso   1.00
C13    C     0.09840   0.27380   0.89660   0.01267  Uiso   1.00
C14    C     0.81460   0.31950   0.81035   0.01267  Uiso   1.00
C15    C     0.37220   0.30930   0.95833   0.01267  Uiso   1.00
C16    C     0.37880   0.24640   0.99250   0.01267  Uiso   1.00
C17    C     0.38350   0.28130   0.05410   0.01267  Uiso   1.00
C18    C     0.38300   0.37850   0.08328   0.01267  Uiso   1.00
C19    C     0.37490   0.44170   0.04900   0.01267  Uiso   1.00
C20    C     0.36860   0.40750   0.98740   0.01267  Uiso   1.00
C21    C     0.38680   0.41540   0.14936   0.01267  Uiso   1.00
C22    C     0.39800   0.85740   0.64587   0.01267  Uiso   1.00
C23    C     0.52460   0.88350   0.65230   0.01267  Uiso   1.00
C24    C     0.56180   0.98120   0.67310   0.01267  Uiso   1.00
C25    C     0.46630   0.05090   0.68553   0.01267  Uiso   1.00
C26    C     0.34200   0.02500   0.67830   0.01267  Uiso   1.00
C27    C     0.30830   0.92910   0.65860   0.01267  Uiso   1.00
C28    C     0.50650   0.15610   0.71195   0.01267  Uiso   1.00
C29    C     0.19880   0.71870   0.64048   0.01267  Uiso   1.00
C30    C     0.17060   0.70170   0.69430   0.01267  Uiso   1.00
C31    C     0.04640   0.69030   0.70990   0.01267  Uiso   1.00
C32    C     0.94830   0.69430   0.67205   0.01267  Uiso   1.00
C33    C     0.97240   0.71590   0.61940   0.01267  Uiso   1.00
C34    C     0.09840   0.72620   0.60340   0.01267  Uiso   1.00
C35    C     0.81460   0.68050   0.68965   0.01267  Uiso   1.00
C36    C     0.37220   0.69070   0.54167   0.01267  Uiso   1.00
C37    C     0.37880   0.75360   0.50750   0.01267  Uiso   1.00
C38    C     0.38350   0.71870   0.44590   0.01267  Uiso   1.00
C39    C     0.38300   0.62150   0.41672   0.01267  Uiso   1.00
C40    C     0.37490   0.55830   0.45100   0.01267  Uiso   1.00
C41    C     0.36860   0.59250   0.51260   0.01267  Uiso   1.00
C42    C     0.38680   0.58460   0.35064   0.01267  Uiso   1.00
C43    C     0.60200   0.85740   0.14587   0.01267  Uiso   1.00
C44    C     0.47540   0.88350   0.15230   0.01267  Uiso   1.00
C45    C     0.43820   0.98120   0.17310   0.01267  Uiso   1.00
C46    C     0.53370   0.05090   0.18553   0.01267  Uiso   1.00
C47    C     0.65800   0.02500   0.17830   0.01267  Uiso   1.00
C48    C     0.69170   0.92910   0.15860   0.01267  Uiso   1.00
C49    C     0.49350   0.15610   0.21195   0.01267  Uiso   1.00
C50    C     0.80120   0.71870   0.14048   0.01267  Uiso   1.00
C51    C     0.82940   0.70170   0.19430   0.01267  Uiso   1.00
C52    C     0.95360   0.69030   0.20990   0.01267  Uiso   1.00
C53    C     0.05170   0.69430   0.17205   0.01267  Uiso   1.00
C54    C     0.02760   0.71590   0.11940   0.01267  Uiso   1.00
C55    C     0.90160   0.72620   0.10340   0.01267  Uiso   1.00
C56    C     0.18540   0.68050   0.18965   0.01267  Uiso   1.00
C57    C     0.62780   0.69070   0.04167   0.01267  Uiso   1.00
C58    C     0.62120   0.75360   0.00750   0.01267  Uiso   1.00
C59    C     0.61650   0.71870   0.94590   0.01267  Uiso   1.00
C60    C     0.61700   0.62150   0.91672   0.01267  Uiso   1.00
C61    C     0.62510   0.55830   0.95100   0.01267  Uiso   1.00
C62    C     0.63140   0.59250   0.01260   0.01267  Uiso   1.00
C63    C     0.61320   0.58460   0.85064   0.01267  Uiso   1.00
C64    C     0.60200   0.14260   0.35413   0.01267  Uiso   1.00
C65    C     0.47540   0.11650   0.34770   0.01267  Uiso   1.00
C66    C     0.43820   0.01880   0.32690   0.01267  Uiso   1.00
C67    C     0.53370   0.94910   0.31447   0.01267  Uiso   1.00
C68    C     0.65800   0.97500   0.32170   0.01267  Uiso   1.00
C69    C     0.69170   0.07090   0.34140   0.01267  Uiso   1.00
C70    C     0.49350   0.84390   0.28805   0.01267  Uiso   1.00
C71    C     0.80120   0.28130   0.35952   0.01267  Uiso   1.00
C72    C     0.82940   0.29830   0.30570   0.01267  Uiso   1.00
C73    C     0.95360   0.30970   0.29010   0.01267  Uiso   1.00
C74    C     0.05170   0.30570   0.32795   0.01267  Uiso   1.00
C75    C     0.02760   0.28410   0.38060   0.01267  Uiso   1.00
C76    C     0.90160   0.27380   0.39660   0.01267  Uiso   1.00
C77    C     0.18540   0.31950   0.31035   0.01267  Uiso   1.00
C78    C     0.62780   0.30930   0.45833   0.01267  Uiso   1.00
C79    C     0.62120   0.24640   0.49250   0.01267  Uiso   1.00
C80    C     0.61650   0.28130   0.55410   0.01267  Uiso   1.00
C81    C     0.61700   0.37850   0.58328   0.01267  Uiso   1.00
C82    C     0.62510   0.44170   0.54900   0.01267  Uiso   1.00
C83    C     0.63140   0.40750   0.48740   0.01267  Uiso   1.00
C84    C     0.61320   0.41540   0.64936   0.01267  Uiso   1.00
C85    C     0.34180   0.50000   0.75000   0.01267  Uiso   1.00
C86    C     0.65820   0.50000   0.25000   0.01267  Uiso   1.00
O1     O     0.61780   0.82240   0.77262   0.01267  Uiso   1.00
O2     O     0.41910   0.78030   0.78117   0.01267  Uiso   1.00
O3     O     0.79400   0.34340   0.76337   0.01267  Uiso   1.00
O4     O     0.72130   0.30840   0.84245   0.01267  Uiso   1.00
O5     O     0.38030   0.50360   0.17342   0.01267  Uiso   1.00
O6     O     0.39920   0.35390   0.17744   0.01267  Uiso   1.00
O7     O     0.44810   0.32590   0.85009   0.01267  Uiso   1.00
O8     O     0.38770   0.56940   0.73841   0.01267  Uiso   1.00
O9     O     0.61780   0.17760   0.72738   0.01267  Uiso   1.00
O10    O     0.41910   0.21970   0.71883   0.01267  Uiso   1.00
O11    O     0.79400   0.65660   0.73663   0.01267  Uiso   1.00
O12    O     0.72130   0.69160   0.65755   0.01267  Uiso   1.00
O13    O     0.38030   0.49640   0.32658   0.01267  Uiso   1.00
O14    O     0.39920   0.64610   0.32256   0.01267  Uiso   1.00
O15    O     0.44810   0.67410   0.64991   0.01267  Uiso   1.00
O16    O     0.38770   0.43060   0.76159   0.01267  Uiso   1.00
O17    O     0.38220   0.17760   0.22738   0.01267  Uiso   1.00
O18    O     0.58090   0.21970   0.21883   0.01267  Uiso   1.00
O19    O     0.20600   0.65660   0.23663   0.01267  Uiso   1.00
O20    O     0.27870   0.69160   0.15755   0.01267  Uiso   1.00
O21    O     0.61970   0.49640   0.82658   0.01267  Uiso   1.00
O22    O     0.60080   0.64610   0.82256   0.01267  Uiso   1.00
O23    O     0.55190   0.67410   0.14991   0.01267  Uiso   1.00
O24    O     0.61230   0.43060   0.26159   0.01267  Uiso   1.00
O25    O     0.38220   0.82240   0.27262   0.01267  Uiso   1.00
O26    O     0.58090   0.78030   0.28117   0.01267  Uiso   1.00
O27    O     0.20600   0.34340   0.26337   0.01267  Uiso   1.00
O28    O     0.27870   0.30840   0.34245   0.01267  Uiso   1.00
O29    O     0.61970   0.50360   0.67342   0.01267  Uiso   1.00
O30    O     0.60080   0.35390   0.67744   0.01267  Uiso   1.00
O31    O     0.55190   0.32590   0.35009   0.01267  Uiso   1.00
O32    O     0.61230   0.56940   0.23841   0.01267  Uiso   1.00
