data_DARDEH_clean
_audit_creation_date              2014-07-02
_audit_creation_method            'Materials Studio'
_symmetry_space_group_name_H-M    'P1'
_symmetry_Int_Tables_number       1
_symmetry_cell_setting            triclinic
loop_
_symmetry_equiv_pos_as_xyz
  x,y,z
_cell_length_a                    10.6030
_cell_length_b                    14.6640
_cell_length_c                    23.6894
_cell_angle_alpha                 107.9940
_cell_angle_beta                  90.0000
_cell_angle_gamma                 90.0000
loop_
_atom_site_label
_atom_site_type_symbol
_atom_site_fract_x
_atom_site_fract_y
_atom_site_fract_z
_atom_site_U_iso_or_equiv
_atom_site_adp_type
_atom_site_occupancy
Sm1    Sm    0.07247   0.42573   0.77228   0.01267  Uiso   1.00
Sm2    Sm    0.07247   0.07427   0.72772   0.01267  Uiso   1.00
Sm3    Sm    0.92753   0.57427   0.22772   0.01267  Uiso   1.00
Sm4    Sm    0.92753   0.92573   0.27228   0.01267  Uiso   1.00
P1     P     0.86550   0.60799   0.87837   0.01267  Uiso   1.00
P2     P     0.86550   0.89201   0.62163   0.01267  Uiso   1.00
P3     P     0.13450   0.39201   0.12163   0.01267  Uiso   1.00
P4     P     0.13450   0.10799   0.37837   0.01267  Uiso   1.00
H1     H     0.74270   0.47930   0.78020   0.01267  Uiso   1.00
H2     H     0.53820   0.43360   0.75390   0.01267  Uiso   1.00
H3     H     0.41520   0.61850   0.90690   0.01267  Uiso   1.00
H4     H     0.62170   0.66530   0.93290   0.01267  Uiso   1.00
H5     H     0.87070   0.51740   0.96750   0.01267  Uiso   1.00
H6     H     0.87560   0.56520   0.06970   0.01267  Uiso   1.00
H7     H     0.88030   0.83770   0.07250   0.01267  Uiso   1.00
H8     H     0.88030   0.79110   0.97080   0.01267  Uiso   1.00
H9     H     0.09250   0.68950   0.85600   0.01267  Uiso   1.00
H10    H     0.14940   0.81370   0.82150   0.01267  Uiso   1.00
H11    H     0.78470   0.87890   0.80970   0.01267  Uiso   1.00
H12    H     0.72880   0.75440   0.84540   0.01267  Uiso   1.00
H13    H     0.74270   0.02070   0.71980   0.01267  Uiso   1.00
H14    H     0.53820   0.06640   0.74610   0.01267  Uiso   1.00
H15    H     0.41520   0.88150   0.59310   0.01267  Uiso   1.00
H16    H     0.62170   0.83470   0.56710   0.01267  Uiso   1.00
H17    H     0.87070   0.98260   0.53250   0.01267  Uiso   1.00
H18    H     0.87560   0.93480   0.43030   0.01267  Uiso   1.00
H19    H     0.88030   0.66230   0.42750   0.01267  Uiso   1.00
H20    H     0.88030   0.70890   0.52920   0.01267  Uiso   1.00
H21    H     0.09250   0.81050   0.64400   0.01267  Uiso   1.00
H22    H     0.14940   0.68630   0.67850   0.01267  Uiso   1.00
H23    H     0.78470   0.62110   0.69030   0.01267  Uiso   1.00
H24    H     0.72880   0.74560   0.65460   0.01267  Uiso   1.00
H25    H     0.25730   0.52070   0.21980   0.01267  Uiso   1.00
H26    H     0.46180   0.56640   0.24610   0.01267  Uiso   1.00
H27    H     0.58480   0.38150   0.09310   0.01267  Uiso   1.00
H28    H     0.37830   0.33470   0.06710   0.01267  Uiso   1.00
H29    H     0.12930   0.48260   0.03250   0.01267  Uiso   1.00
H30    H     0.12440   0.43480   0.93030   0.01267  Uiso   1.00
H31    H     0.11970   0.16230   0.92750   0.01267  Uiso   1.00
H32    H     0.11970   0.20890   0.02920   0.01267  Uiso   1.00
H33    H     0.90750   0.31050   0.14400   0.01267  Uiso   1.00
H34    H     0.85060   0.18630   0.17850   0.01267  Uiso   1.00
H35    H     0.21530   0.12110   0.19030   0.01267  Uiso   1.00
H36    H     0.27120   0.24560   0.15460   0.01267  Uiso   1.00
H37    H     0.25730   0.97930   0.28020   0.01267  Uiso   1.00
H38    H     0.46180   0.93360   0.25390   0.01267  Uiso   1.00
H39    H     0.58480   0.11850   0.40690   0.01267  Uiso   1.00
H40    H     0.37830   0.16530   0.43290   0.01267  Uiso   1.00
H41    H     0.12930   0.01740   0.46750   0.01267  Uiso   1.00
H42    H     0.12440   0.06520   0.56970   0.01267  Uiso   1.00
H43    H     0.11970   0.33770   0.57250   0.01267  Uiso   1.00
H44    H     0.11970   0.29110   0.47080   0.01267  Uiso   1.00
H45    H     0.90750   0.18950   0.35600   0.01267  Uiso   1.00
H46    H     0.85060   0.31370   0.32150   0.01267  Uiso   1.00
H47    H     0.21530   0.37890   0.30970   0.01267  Uiso   1.00
H48    H     0.27120   0.25440   0.34540   0.01267  Uiso   1.00
H49    H     0.75980   0.25000   0.75000   0.01267  Uiso   1.00
H50    H     0.24020   0.75000   0.25000   0.01267  Uiso   1.00
C1     C     0.70290   0.57500   0.85960   0.01267  Uiso   1.00
C2     C     0.67710   0.50690   0.80590   0.01267  Uiso   1.00
C3     C     0.55470   0.47950   0.79020   0.01267  Uiso   1.00
C4     C     0.45620   0.51950   0.82770   0.01267  Uiso   1.00
C5     C     0.48110   0.59020   0.88160   0.01267  Uiso   1.00
C6     C     0.60470   0.61800   0.89730   0.01267  Uiso   1.00
C7     C     0.32340   0.48910   0.81070   0.01267  Uiso   1.00
C8     C     0.87150   0.64920   0.95790   0.01267  Uiso   1.00
C9     C     0.87260   0.58240   0.98850   0.01267  Uiso   1.00
C10    C     0.87630   0.61100   0.04990   0.01267  Uiso   1.00
C11    C     0.88120   0.70650   0.08150   0.01267  Uiso   1.00
C12    C     0.87980   0.77270   0.05130   0.01267  Uiso   1.00
C13    C     0.87760   0.74490   0.99030   0.01267  Uiso   1.00
C14    C     0.88170   0.73880   0.14820   0.01267  Uiso   1.00
C15    C     0.90380   0.70880   0.85350   0.01267  Uiso   1.00
C16    C     0.03070   0.72760   0.84670   0.01267  Uiso   1.00
C17    C     0.06460   0.80200   0.82650   0.01267  Uiso   1.00
C18    C     0.97220   0.86070   0.81330   0.01267  Uiso   1.00
C19    C     0.84680   0.84160   0.81950   0.01267  Uiso   1.00
C20    C     0.81350   0.76620   0.84030   0.01267  Uiso   1.00
C21    C     0.00880   0.93930   0.78840   0.01267  Uiso   1.00
C22    C     0.70290   0.92500   0.64040   0.01267  Uiso   1.00
C23    C     0.67710   0.99310   0.69410   0.01267  Uiso   1.00
C24    C     0.55470   0.02050   0.70980   0.01267  Uiso   1.00
C25    C     0.45620   0.98050   0.67230   0.01267  Uiso   1.00
C26    C     0.48110   0.90980   0.61840   0.01267  Uiso   1.00
C27    C     0.60470   0.88200   0.60270   0.01267  Uiso   1.00
C28    C     0.32340   0.01090   0.68930   0.01267  Uiso   1.00
C29    C     0.87150   0.85080   0.54210   0.01267  Uiso   1.00
C30    C     0.87260   0.91760   0.51150   0.01267  Uiso   1.00
C31    C     0.87630   0.88900   0.45010   0.01267  Uiso   1.00
C32    C     0.88120   0.79350   0.41850   0.01267  Uiso   1.00
C33    C     0.87980   0.72730   0.44870   0.01267  Uiso   1.00
C34    C     0.87760   0.75510   0.50970   0.01267  Uiso   1.00
C35    C     0.88170   0.76120   0.35180   0.01267  Uiso   1.00
C36    C     0.90380   0.79120   0.64650   0.01267  Uiso   1.00
C37    C     0.03070   0.77240   0.65330   0.01267  Uiso   1.00
C38    C     0.06460   0.69800   0.67350   0.01267  Uiso   1.00
C39    C     0.97220   0.63930   0.68670   0.01267  Uiso   1.00
C40    C     0.84680   0.65840   0.68050   0.01267  Uiso   1.00
C41    C     0.81350   0.73380   0.65970   0.01267  Uiso   1.00
C42    C     0.00880   0.56070   0.71160   0.01267  Uiso   1.00
C43    C     0.29710   0.42500   0.14040   0.01267  Uiso   1.00
C44    C     0.32290   0.49310   0.19410   0.01267  Uiso   1.00
C45    C     0.44530   0.52050   0.20980   0.01267  Uiso   1.00
C46    C     0.54380   0.48050   0.17230   0.01267  Uiso   1.00
C47    C     0.51890   0.40980   0.11840   0.01267  Uiso   1.00
C48    C     0.39530   0.38200   0.10270   0.01267  Uiso   1.00
C49    C     0.67660   0.51090   0.18930   0.01267  Uiso   1.00
C50    C     0.12850   0.35080   0.04210   0.01267  Uiso   1.00
C51    C     0.12740   0.41760   0.01150   0.01267  Uiso   1.00
C52    C     0.12370   0.38900   0.95010   0.01267  Uiso   1.00
C53    C     0.11880   0.29350   0.91850   0.01267  Uiso   1.00
C54    C     0.12020   0.22730   0.94870   0.01267  Uiso   1.00
C55    C     0.12240   0.25510   0.00970   0.01267  Uiso   1.00
C56    C     0.11830   0.26120   0.85180   0.01267  Uiso   1.00
C57    C     0.09620   0.29120   0.14650   0.01267  Uiso   1.00
C58    C     0.96930   0.27240   0.15330   0.01267  Uiso   1.00
C59    C     0.93540   0.19800   0.17350   0.01267  Uiso   1.00
C60    C     0.02780   0.13930   0.18670   0.01267  Uiso   1.00
C61    C     0.15320   0.15840   0.18050   0.01267  Uiso   1.00
C62    C     0.18650   0.23380   0.15970   0.01267  Uiso   1.00
C63    C     0.99120   0.06070   0.21160   0.01267  Uiso   1.00
C64    C     0.29710   0.07500   0.35960   0.01267  Uiso   1.00
C65    C     0.32290   0.00690   0.30590   0.01267  Uiso   1.00
C66    C     0.44530   0.97950   0.29020   0.01267  Uiso   1.00
C67    C     0.54380   0.01950   0.32770   0.01267  Uiso   1.00
C68    C     0.51890   0.09020   0.38160   0.01267  Uiso   1.00
C69    C     0.39530   0.11800   0.39730   0.01267  Uiso   1.00
C70    C     0.67660   0.98910   0.31070   0.01267  Uiso   1.00
C71    C     0.12850   0.14920   0.45790   0.01267  Uiso   1.00
C72    C     0.12740   0.08240   0.48850   0.01267  Uiso   1.00
C73    C     0.12370   0.11100   0.54990   0.01267  Uiso   1.00
C74    C     0.11880   0.20650   0.58150   0.01267  Uiso   1.00
C75    C     0.12020   0.27270   0.55130   0.01267  Uiso   1.00
C76    C     0.12240   0.24490   0.49030   0.01267  Uiso   1.00
C77    C     0.11830   0.23880   0.64820   0.01267  Uiso   1.00
C78    C     0.09620   0.20880   0.35350   0.01267  Uiso   1.00
C79    C     0.96930   0.22760   0.34670   0.01267  Uiso   1.00
C80    C     0.93540   0.30200   0.32650   0.01267  Uiso   1.00
C81    C     0.02780   0.36070   0.31330   0.01267  Uiso   1.00
C82    C     0.15320   0.34160   0.31950   0.01267  Uiso   1.00
C83    C     0.18650   0.26620   0.34030   0.01267  Uiso   1.00
C84    C     0.99120   0.43930   0.28840   0.01267  Uiso   1.00
C85    C     0.84750   0.25000   0.75000   0.01267  Uiso   1.00
C86    C     0.15250   0.75000   0.25000   0.01267  Uiso   1.00
O1     O     0.95240   0.52490   0.85240   0.01267  Uiso   1.00
O2     O     0.30500   0.42020   0.76320   0.01267  Uiso   1.00
O3     O     0.23280   0.52990   0.84260   0.01267  Uiso   1.00
O4     O     0.87580   0.67640   0.17360   0.01267  Uiso   1.00
O5     O     0.89010   0.82650   0.17420   0.01267  Uiso   1.00
O6     O     0.92500   0.99460   0.78000   0.01267  Uiso   1.00
O7     O     0.12120   0.94700   0.77350   0.01267  Uiso   1.00
O8     O     0.89100   0.32820   0.75850   0.01267  Uiso   1.00
O9     O     0.95240   0.97510   0.64760   0.01267  Uiso   1.00
O10    O     0.30500   0.07980   0.73680   0.01267  Uiso   1.00
O11    O     0.23280   0.97010   0.65740   0.01267  Uiso   1.00
O12    O     0.87580   0.82360   0.32640   0.01267  Uiso   1.00
O13    O     0.89010   0.67350   0.32580   0.01267  Uiso   1.00
O14    O     0.92500   0.50540   0.72000   0.01267  Uiso   1.00
O15    O     0.12120   0.55300   0.72650   0.01267  Uiso   1.00
O16    O     0.89100   0.17180   0.74150   0.01267  Uiso   1.00
O17    O     0.04760   0.47510   0.14760   0.01267  Uiso   1.00
O18    O     0.69500   0.57980   0.23680   0.01267  Uiso   1.00
O19    O     0.76720   0.47010   0.15740   0.01267  Uiso   1.00
O20    O     0.12420   0.32360   0.82640   0.01267  Uiso   1.00
O21    O     0.10990   0.17350   0.82580   0.01267  Uiso   1.00
O22    O     0.07500   0.00540   0.22000   0.01267  Uiso   1.00
O23    O     0.87880   0.05300   0.22650   0.01267  Uiso   1.00
O24    O     0.10900   0.67180   0.24150   0.01267  Uiso   1.00
O25    O     0.04760   0.02490   0.35240   0.01267  Uiso   1.00
O26    O     0.69500   0.92020   0.26320   0.01267  Uiso   1.00
O27    O     0.76720   0.02990   0.34260   0.01267  Uiso   1.00
O28    O     0.12420   0.17640   0.67360   0.01267  Uiso   1.00
O29    O     0.10990   0.32650   0.67420   0.01267  Uiso   1.00
O30    O     0.07500   0.49460   0.28000   0.01267  Uiso   1.00
O31    O     0.87880   0.44700   0.27350   0.01267  Uiso   1.00
O32    O     0.10900   0.82820   0.25850   0.01267  Uiso   1.00
