data_DARDIL_clean
_audit_creation_date              2014-07-02
_audit_creation_method            'Materials Studio'
_symmetry_space_group_name_H-M    'P1'
_symmetry_Int_Tables_number       1
_symmetry_cell_setting            triclinic
loop_
_symmetry_equiv_pos_as_xyz
  x,y,z
_cell_length_a                    10.5720
_cell_length_b                    14.6170
_cell_length_c                    23.5480
_cell_angle_alpha                 107.7900
_cell_angle_beta                  90.0000
_cell_angle_gamma                 90.0000
loop_
_atom_site_label
_atom_site_type_symbol
_atom_site_fract_x
_atom_site_fract_y
_atom_site_fract_z
_atom_site_U_iso_or_equiv
_atom_site_adp_type
_atom_site_occupancy
Eu1    Eu    0.56910   0.65316   0.72627   0.01267  Uiso   1.00
Eu2    Eu    0.56910   0.34684   0.77373   0.01267  Uiso   1.00
Eu3    Eu    0.43090   0.34684   0.27373   0.01267  Uiso   1.00
Eu4    Eu    0.43090   0.65316   0.22627   0.01267  Uiso   1.00
P1     P     0.36233   0.26944   0.87915   0.01267  Uiso   1.00
P2     P     0.36233   0.73056   0.62085   0.01267  Uiso   1.00
P3     P     0.63767   0.73056   0.12085   0.01267  Uiso   1.00
P4     P     0.63767   0.26944   0.37915   0.01267  Uiso   1.00
H1     H     0.58890   0.16590   0.85880   0.01267  Uiso   1.00
H2     H     0.64820   0.00940   0.82050   0.01267  Uiso   1.00
H3     H     0.28130   0.92940   0.81060   0.01267  Uiso   1.00
H4     H     0.22440   0.09030   0.84480   0.01267  Uiso   1.00
H5     H     0.23850   0.29150   0.77880   0.01267  Uiso   1.00
H6     H     0.03340   0.31560   0.75390   0.01267  Uiso   1.00
H7     H     0.91390   0.29250   0.90930   0.01267  Uiso   1.00
H8     H     0.12070   0.27450   0.93610   0.01267  Uiso   1.00
H9     H     0.38340   0.17930   0.97160   0.01267  Uiso   1.00
H10    H     0.39220   0.23500   0.07450   0.01267  Uiso   1.00
H11    H     0.37230   0.50420   0.07000   0.01267  Uiso   1.00
H12    H     0.36600   0.44840   0.96690   0.01267  Uiso   1.00
H13    H     0.58890   0.83410   0.64120   0.01267  Uiso   1.00
H14    H     0.64820   0.99060   0.67950   0.01267  Uiso   1.00
H15    H     0.28130   0.07060   0.68940   0.01267  Uiso   1.00
H16    H     0.22440   0.90970   0.65520   0.01267  Uiso   1.00
H17    H     0.23850   0.70850   0.72120   0.01267  Uiso   1.00
H18    H     0.03340   0.68440   0.74610   0.01267  Uiso   1.00
H19    H     0.91390   0.70750   0.59070   0.01267  Uiso   1.00
H20    H     0.12070   0.72550   0.56390   0.01267  Uiso   1.00
H21    H     0.38340   0.82070   0.52840   0.01267  Uiso   1.00
H22    H     0.39220   0.76500   0.42550   0.01267  Uiso   1.00
H23    H     0.37230   0.49580   0.43000   0.01267  Uiso   1.00
H24    H     0.36600   0.55160   0.53310   0.01267  Uiso   1.00
H25    H     0.41110   0.83410   0.14120   0.01267  Uiso   1.00
H26    H     0.35180   0.99060   0.17950   0.01267  Uiso   1.00
H27    H     0.71870   0.07060   0.18940   0.01267  Uiso   1.00
H28    H     0.77560   0.90970   0.15520   0.01267  Uiso   1.00
H29    H     0.76150   0.70850   0.22120   0.01267  Uiso   1.00
H30    H     0.96660   0.68440   0.24610   0.01267  Uiso   1.00
H31    H     0.08610   0.70750   0.09070   0.01267  Uiso   1.00
H32    H     0.87930   0.72550   0.06390   0.01267  Uiso   1.00
H33    H     0.61660   0.82070   0.02840   0.01267  Uiso   1.00
H34    H     0.60780   0.76500   0.92550   0.01267  Uiso   1.00
H35    H     0.62770   0.49580   0.93000   0.01267  Uiso   1.00
H36    H     0.63400   0.55160   0.03310   0.01267  Uiso   1.00
H37    H     0.41110   0.16590   0.35880   0.01267  Uiso   1.00
H38    H     0.35180   0.00940   0.32050   0.01267  Uiso   1.00
H39    H     0.71870   0.92940   0.31060   0.01267  Uiso   1.00
H40    H     0.77560   0.09030   0.34480   0.01267  Uiso   1.00
H41    H     0.76150   0.29150   0.27880   0.01267  Uiso   1.00
H42    H     0.96660   0.31560   0.25390   0.01267  Uiso   1.00
H43    H     0.08610   0.29250   0.40930   0.01267  Uiso   1.00
H44    H     0.87930   0.27450   0.43610   0.01267  Uiso   1.00
H45    H     0.61660   0.17930   0.47160   0.01267  Uiso   1.00
H46    H     0.60780   0.23500   0.57450   0.01267  Uiso   1.00
H47    H     0.62770   0.50420   0.57000   0.01267  Uiso   1.00
H48    H     0.63400   0.44840   0.46690   0.01267  Uiso   1.00
H49    H     0.25590   0.50000   0.75000   0.01267  Uiso   1.00
H50    H     0.74410   0.50000   0.25000   0.01267  Uiso   1.00
C1     C     0.40160   0.14400   0.85377   0.01267  Uiso   1.00
C2     C     0.52730   0.11840   0.84789   0.01267  Uiso   1.00
C3     C     0.56290   0.02510   0.82648   0.01267  Uiso   1.00
C4     C     0.47050   0.95150   0.81313   0.01267  Uiso   1.00
C5     C     0.34340   0.97670   0.81980   0.01267  Uiso   1.00
C6     C     0.30940   0.07320   0.84020   0.01267  Uiso   1.00
C7     C     0.50700   0.84740   0.78716   0.01267  Uiso   1.00
C8     C     0.20100   0.28300   0.86078   0.01267  Uiso   1.00
C9     C     0.17370   0.29360   0.80579   0.01267  Uiso   1.00
C10    C     0.05030   0.30710   0.79080   0.01267  Uiso   1.00
C11    C     0.95230   0.30830   0.82913   0.01267  Uiso   1.00
C12    C     0.97940   0.29420   0.88320   0.01267  Uiso   1.00
C13    C     0.10360   0.28260   0.89920   0.01267  Uiso   1.00
C14    C     0.81830   0.32210   0.81262   0.01267  Uiso   1.00
C15    C     0.37250   0.30820   0.95903   0.01267  Uiso   1.00
C16    C     0.38100   0.24500   0.99116   0.01267  Uiso   1.00
C17    C     0.38620   0.27850   0.05293   0.01267  Uiso   1.00
C18    C     0.38260   0.37440   0.08231   0.01267  Uiso   1.00
C19    C     0.37470   0.43860   0.05036   0.01267  Uiso   1.00
C20    C     0.37040   0.40490   0.98855   0.01267  Uiso   1.00
C21    C     0.38620   0.40930   0.14887   0.01267  Uiso   1.00
C22    C     0.40160   0.85600   0.64623   0.01267  Uiso   1.00
C23    C     0.52730   0.88160   0.65211   0.01267  Uiso   1.00
C24    C     0.56290   0.97490   0.67352   0.01267  Uiso   1.00
C25    C     0.47050   0.04850   0.68687   0.01267  Uiso   1.00
C26    C     0.34340   0.02330   0.68020   0.01267  Uiso   1.00
C27    C     0.30940   0.92680   0.65980   0.01267  Uiso   1.00
C28    C     0.50700   0.15260   0.71284   0.01267  Uiso   1.00
C29    C     0.20100   0.71700   0.63922   0.01267  Uiso   1.00
C30    C     0.17370   0.70640   0.69421   0.01267  Uiso   1.00
C31    C     0.05030   0.69290   0.70920   0.01267  Uiso   1.00
C32    C     0.95230   0.69170   0.67087   0.01267  Uiso   1.00
C33    C     0.97940   0.70580   0.61680   0.01267  Uiso   1.00
C34    C     0.10360   0.71740   0.60080   0.01267  Uiso   1.00
C35    C     0.81830   0.67790   0.68738   0.01267  Uiso   1.00
C36    C     0.37250   0.69180   0.54097   0.01267  Uiso   1.00
C37    C     0.38100   0.75500   0.50884   0.01267  Uiso   1.00
C38    C     0.38620   0.72150   0.44707   0.01267  Uiso   1.00
C39    C     0.38260   0.62560   0.41769   0.01267  Uiso   1.00
C40    C     0.37470   0.56140   0.44964   0.01267  Uiso   1.00
C41    C     0.37040   0.59510   0.51145   0.01267  Uiso   1.00
C42    C     0.38620   0.59070   0.35113   0.01267  Uiso   1.00
C43    C     0.59840   0.85600   0.14623   0.01267  Uiso   1.00
C44    C     0.47270   0.88160   0.15211   0.01267  Uiso   1.00
C45    C     0.43710   0.97490   0.17352   0.01267  Uiso   1.00
C46    C     0.52950   0.04850   0.18687   0.01267  Uiso   1.00
C47    C     0.65660   0.02330   0.18020   0.01267  Uiso   1.00
C48    C     0.69060   0.92680   0.15980   0.01267  Uiso   1.00
C49    C     0.49300   0.15260   0.21284   0.01267  Uiso   1.00
C50    C     0.79900   0.71700   0.13922   0.01267  Uiso   1.00
C51    C     0.82630   0.70640   0.19421   0.01267  Uiso   1.00
C52    C     0.94970   0.69290   0.20920   0.01267  Uiso   1.00
C53    C     0.04770   0.69170   0.17087   0.01267  Uiso   1.00
C54    C     0.02060   0.70580   0.11680   0.01267  Uiso   1.00
C55    C     0.89640   0.71740   0.10080   0.01267  Uiso   1.00
C56    C     0.18170   0.67790   0.18738   0.01267  Uiso   1.00
C57    C     0.62750   0.69180   0.04097   0.01267  Uiso   1.00
C58    C     0.61900   0.75500   0.00884   0.01267  Uiso   1.00
C59    C     0.61380   0.72150   0.94707   0.01267  Uiso   1.00
C60    C     0.61740   0.62560   0.91769   0.01267  Uiso   1.00
C61    C     0.62530   0.56140   0.94964   0.01267  Uiso   1.00
C62    C     0.62960   0.59510   0.01145   0.01267  Uiso   1.00
C63    C     0.61380   0.59070   0.85113   0.01267  Uiso   1.00
C64    C     0.59840   0.14400   0.35377   0.01267  Uiso   1.00
C65    C     0.47270   0.11840   0.34789   0.01267  Uiso   1.00
C66    C     0.43710   0.02510   0.32648   0.01267  Uiso   1.00
C67    C     0.52950   0.95150   0.31313   0.01267  Uiso   1.00
C68    C     0.65660   0.97670   0.31980   0.01267  Uiso   1.00
C69    C     0.69060   0.07320   0.34020   0.01267  Uiso   1.00
C70    C     0.49300   0.84740   0.28716   0.01267  Uiso   1.00
C71    C     0.79900   0.28300   0.36078   0.01267  Uiso   1.00
C72    C     0.82630   0.29360   0.30579   0.01267  Uiso   1.00
C73    C     0.94970   0.30710   0.29080   0.01267  Uiso   1.00
C74    C     0.04770   0.30830   0.32913   0.01267  Uiso   1.00
C75    C     0.02060   0.29420   0.38320   0.01267  Uiso   1.00
C76    C     0.89640   0.28260   0.39920   0.01267  Uiso   1.00
C77    C     0.18170   0.32210   0.31262   0.01267  Uiso   1.00
C78    C     0.62750   0.30820   0.45903   0.01267  Uiso   1.00
C79    C     0.61900   0.24500   0.49116   0.01267  Uiso   1.00
C80    C     0.61380   0.27850   0.55293   0.01267  Uiso   1.00
C81    C     0.61740   0.37440   0.58231   0.01267  Uiso   1.00
C82    C     0.62530   0.43860   0.55036   0.01267  Uiso   1.00
C83    C     0.62960   0.40490   0.48855   0.01267  Uiso   1.00
C84    C     0.61380   0.40930   0.64887   0.01267  Uiso   1.00
C85    C     0.34390   0.50000   0.75000   0.01267  Uiso   1.00
C86    C     0.65610   0.50000   0.25000   0.01267  Uiso   1.00
O1     O     0.61890   0.82550   0.77173   0.01267  Uiso   1.00
O2     O     0.42270   0.78345   0.78052   0.01267  Uiso   1.00
O3     O     0.80060   0.34280   0.76452   0.01267  Uiso   1.00
O4     O     0.72750   0.31470   0.84512   0.01267  Uiso   1.00
O5     O     0.37800   0.49750   0.17438   0.01267  Uiso   1.00
O6     O     0.39550   0.34880   0.17612   0.01267  Uiso   1.00
O7     O     0.44890   0.32705   0.85303   0.01267  Uiso   1.00
O8     O     0.38610   0.57070   0.73966   0.01267  Uiso   1.00
O9     O     0.61890   0.17450   0.72827   0.01267  Uiso   1.00
O10    O     0.42270   0.21655   0.71948   0.01267  Uiso   1.00
O11    O     0.80060   0.65720   0.73548   0.01267  Uiso   1.00
O12    O     0.72750   0.68530   0.65488   0.01267  Uiso   1.00
O13    O     0.37800   0.50250   0.32562   0.01267  Uiso   1.00
O14    O     0.39550   0.65120   0.32388   0.01267  Uiso   1.00
O15    O     0.44890   0.67295   0.64697   0.01267  Uiso   1.00
O16    O     0.38610   0.42930   0.76034   0.01267  Uiso   1.00
O17    O     0.38110   0.17450   0.22827   0.01267  Uiso   1.00
O18    O     0.57730   0.21655   0.21948   0.01267  Uiso   1.00
O19    O     0.19940   0.65720   0.23548   0.01267  Uiso   1.00
O20    O     0.27250   0.68530   0.15488   0.01267  Uiso   1.00
O21    O     0.62200   0.50250   0.82562   0.01267  Uiso   1.00
O22    O     0.60450   0.65120   0.82388   0.01267  Uiso   1.00
O23    O     0.55110   0.67295   0.14697   0.01267  Uiso   1.00
O24    O     0.61390   0.42930   0.26034   0.01267  Uiso   1.00
O25    O     0.38110   0.82550   0.27173   0.01267  Uiso   1.00
O26    O     0.57730   0.78345   0.28052   0.01267  Uiso   1.00
O27    O     0.19940   0.34280   0.26452   0.01267  Uiso   1.00
O28    O     0.27250   0.31470   0.34512   0.01267  Uiso   1.00
O29    O     0.62200   0.49750   0.67438   0.01267  Uiso   1.00
O30    O     0.60450   0.34880   0.67612   0.01267  Uiso   1.00
O31    O     0.55110   0.32705   0.35303   0.01267  Uiso   1.00
O32    O     0.61390   0.57070   0.23966   0.01267  Uiso   1.00
