data_DARDOR_clean
_audit_creation_date              2014-07-02
_audit_creation_method            'Materials Studio'
_symmetry_space_group_name_H-M    'P1'
_symmetry_Int_Tables_number       1
_symmetry_cell_setting            triclinic
loop_
_symmetry_equiv_pos_as_xyz
  x,y,z
_cell_length_a                    10.4970
_cell_length_b                    14.5280
_cell_length_c                    23.6495
_cell_angle_alpha                 107.7860
_cell_angle_beta                  90.0000
_cell_angle_gamma                 90.0000
loop_
_atom_site_label
_atom_site_type_symbol
_atom_site_fract_x
_atom_site_fract_y
_atom_site_fract_z
_atom_site_U_iso_or_equiv
_atom_site_adp_type
_atom_site_occupancy
Gd1    Gd    0.58002   0.42455   0.77409   0.01267  Uiso   1.00
Gd2    Gd    0.58002   0.07545   0.72591   0.01267  Uiso   1.00
Gd3    Gd    0.41998   0.57545   0.22591   0.01267  Uiso   1.00
Gd4    Gd    0.41998   0.92455   0.27409   0.01267  Uiso   1.00
P1     P     0.37693   0.89277   0.62036   0.01267  Uiso   1.00
P2     P     0.37693   0.60723   0.87964   0.01267  Uiso   1.00
P3     P     0.62307   0.10723   0.37964   0.01267  Uiso   1.00
P4     P     0.62307   0.39277   0.12036   0.01267  Uiso   1.00
H1     H     0.60760   0.80780   0.64100   0.01267  Uiso   1.00
H2     H     0.66360   0.68210   0.67580   0.01267  Uiso   1.00
H3     H     0.29600   0.62260   0.69300   0.01267  Uiso   1.00
H4     H     0.23600   0.74920   0.65790   0.01267  Uiso   1.00
H5     H     0.13260   0.83960   0.56280   0.01267  Uiso   1.00
H6     H     0.92320   0.88810   0.58840   0.01267  Uiso   1.00
H7     H     0.04610   0.06620   0.74470   0.01267  Uiso   1.00
H8     H     0.25330   0.01820   0.71890   0.01267  Uiso   1.00
H9     H     0.36850   0.98220   0.53000   0.01267  Uiso   1.00
H10    H     0.36690   0.93160   0.42800   0.01267  Uiso   1.00
H11    H     0.40690   0.65740   0.42750   0.01267  Uiso   1.00
H12    H     0.40640   0.70750   0.52990   0.01267  Uiso   1.00
H13    H     0.60760   0.69220   0.85900   0.01267  Uiso   1.00
H14    H     0.66360   0.81790   0.82420   0.01267  Uiso   1.00
H15    H     0.29600   0.87740   0.80700   0.01267  Uiso   1.00
H16    H     0.23600   0.75080   0.84210   0.01267  Uiso   1.00
H17    H     0.13260   0.66040   0.93720   0.01267  Uiso   1.00
H18    H     0.92320   0.61190   0.91160   0.01267  Uiso   1.00
H19    H     0.04610   0.43380   0.75530   0.01267  Uiso   1.00
H20    H     0.25330   0.48180   0.78110   0.01267  Uiso   1.00
H21    H     0.36850   0.51780   0.97000   0.01267  Uiso   1.00
H22    H     0.36690   0.56840   0.07200   0.01267  Uiso   1.00
H23    H     0.40690   0.84260   0.07250   0.01267  Uiso   1.00
H24    H     0.40640   0.79250   0.97010   0.01267  Uiso   1.00
H25    H     0.39240   0.19220   0.35900   0.01267  Uiso   1.00
H26    H     0.33640   0.31790   0.32420   0.01267  Uiso   1.00
H27    H     0.70400   0.37740   0.30700   0.01267  Uiso   1.00
H28    H     0.76400   0.25080   0.34210   0.01267  Uiso   1.00
H29    H     0.86740   0.16040   0.43720   0.01267  Uiso   1.00
H30    H     0.07680   0.11190   0.41160   0.01267  Uiso   1.00
H31    H     0.95390   0.93380   0.25530   0.01267  Uiso   1.00
H32    H     0.74670   0.98180   0.28110   0.01267  Uiso   1.00
H33    H     0.63150   0.01780   0.47000   0.01267  Uiso   1.00
H34    H     0.63310   0.06840   0.57200   0.01267  Uiso   1.00
H35    H     0.59310   0.34260   0.57250   0.01267  Uiso   1.00
H36    H     0.59360   0.29250   0.47010   0.01267  Uiso   1.00
H37    H     0.39240   0.30780   0.14100   0.01267  Uiso   1.00
H38    H     0.33640   0.18210   0.17580   0.01267  Uiso   1.00
H39    H     0.70400   0.12260   0.19300   0.01267  Uiso   1.00
H40    H     0.76400   0.24920   0.15790   0.01267  Uiso   1.00
H41    H     0.86740   0.33960   0.06280   0.01267  Uiso   1.00
H42    H     0.07680   0.38810   0.08840   0.01267  Uiso   1.00
H43    H     0.95390   0.56620   0.24470   0.01267  Uiso   1.00
H44    H     0.74670   0.51820   0.21890   0.01267  Uiso   1.00
H45    H     0.63150   0.48220   0.03000   0.01267  Uiso   1.00
H46    H     0.63310   0.43160   0.92800   0.01267  Uiso   1.00
H47    H     0.59310   0.15740   0.92750   0.01267  Uiso   1.00
H48    H     0.59360   0.20750   0.02990   0.01267  Uiso   1.00
H49    H     0.26300   0.25000   0.75000   0.01267  Uiso   1.00
H50    H     0.73700   0.75000   0.25000   0.01267  Uiso   1.00
C1     C     0.41590   0.79250   0.64650   0.01267  Uiso   1.00
C2     C     0.54480   0.77112   0.65162   0.01267  Uiso   1.00
C3     C     0.57790   0.69590   0.67240   0.01267  Uiso   1.00
C4     C     0.48520   0.64000   0.68850   0.01267  Uiso   1.00
C5     C     0.35830   0.66022   0.68272   0.01267  Uiso   1.00
C6     C     0.32180   0.73611   0.66171   0.01267  Uiso   1.00
C7     C     0.51940   0.56215   0.71465   0.01267  Uiso   1.00
C8     C     0.21290   0.92424   0.63794   0.01267  Uiso   1.00
C9     C     0.11500   0.88520   0.59910   0.01267  Uiso   1.00
C10    C     0.98940   0.91440   0.61450   0.01267  Uiso   1.00
C11    C     0.96330   0.98328   0.66918   0.01267  Uiso   1.00
C12    C     0.06310   0.02106   0.70806   0.01267  Uiso   1.00
C13    C     0.18710   0.99233   0.69273   0.01267  Uiso   1.00
C14    C     0.83000   0.01491   0.68641   0.01267  Uiso   1.00
C15    C     0.38550   0.85010   0.54110   0.01267  Uiso   1.00
C16    C     0.37510   0.91660   0.50950   0.01267  Uiso   1.00
C17    C     0.37440   0.88647   0.44847   0.01267  Uiso   1.00
C18    C     0.38480   0.78885   0.41735   0.01267  Uiso   1.00
C19    C     0.39790   0.72263   0.44813   0.01267  Uiso   1.00
C20    C     0.39800   0.75276   0.50956   0.01267  Uiso   1.00
C21    C     0.38000   0.75448   0.35058   0.01267  Uiso   1.00
C22    C     0.41590   0.70750   0.85350   0.01267  Uiso   1.00
C23    C     0.54480   0.72888   0.84838   0.01267  Uiso   1.00
C24    C     0.57790   0.80410   0.82760   0.01267  Uiso   1.00
C25    C     0.48520   0.86000   0.81150   0.01267  Uiso   1.00
C26    C     0.35830   0.83978   0.81728   0.01267  Uiso   1.00
C27    C     0.32180   0.76389   0.83829   0.01267  Uiso   1.00
C28    C     0.51940   0.93785   0.78535   0.01267  Uiso   1.00
C29    C     0.21290   0.57576   0.86206   0.01267  Uiso   1.00
C30    C     0.11500   0.61480   0.90090   0.01267  Uiso   1.00
C31    C     0.98940   0.58560   0.88550   0.01267  Uiso   1.00
C32    C     0.96330   0.51672   0.83082   0.01267  Uiso   1.00
C33    C     0.06310   0.47894   0.79194   0.01267  Uiso   1.00
C34    C     0.18710   0.50767   0.80727   0.01267  Uiso   1.00
C35    C     0.83000   0.48509   0.81359   0.01267  Uiso   1.00
C36    C     0.38550   0.64990   0.95890   0.01267  Uiso   1.00
C37    C     0.37510   0.58340   0.99050   0.01267  Uiso   1.00
C38    C     0.37440   0.61353   0.05153   0.01267  Uiso   1.00
C39    C     0.38480   0.71115   0.08265   0.01267  Uiso   1.00
C40    C     0.39790   0.77737   0.05187   0.01267  Uiso   1.00
C41    C     0.39800   0.74724   0.99044   0.01267  Uiso   1.00
C42    C     0.38000   0.74552   0.14942   0.01267  Uiso   1.00
C43    C     0.58410   0.20750   0.35350   0.01267  Uiso   1.00
C44    C     0.45520   0.22888   0.34838   0.01267  Uiso   1.00
C45    C     0.42210   0.30410   0.32760   0.01267  Uiso   1.00
C46    C     0.51480   0.36000   0.31150   0.01267  Uiso   1.00
C47    C     0.64170   0.33978   0.31728   0.01267  Uiso   1.00
C48    C     0.67820   0.26389   0.33829   0.01267  Uiso   1.00
C49    C     0.48060   0.43785   0.28535   0.01267  Uiso   1.00
C50    C     0.78710   0.07576   0.36206   0.01267  Uiso   1.00
C51    C     0.88500   0.11480   0.40090   0.01267  Uiso   1.00
C52    C     0.01060   0.08560   0.38550   0.01267  Uiso   1.00
C53    C     0.03670   0.01672   0.33082   0.01267  Uiso   1.00
C54    C     0.93690   0.97894   0.29194   0.01267  Uiso   1.00
C55    C     0.81290   0.00767   0.30727   0.01267  Uiso   1.00
C56    C     0.17000   0.98509   0.31359   0.01267  Uiso   1.00
C57    C     0.61450   0.14990   0.45890   0.01267  Uiso   1.00
C58    C     0.62490   0.08340   0.49050   0.01267  Uiso   1.00
C59    C     0.62560   0.11353   0.55153   0.01267  Uiso   1.00
C60    C     0.61520   0.21115   0.58265   0.01267  Uiso   1.00
C61    C     0.60210   0.27737   0.55187   0.01267  Uiso   1.00
C62    C     0.60200   0.24724   0.49044   0.01267  Uiso   1.00
C63    C     0.62000   0.24552   0.64942   0.01267  Uiso   1.00
C64    C     0.58410   0.29250   0.14650   0.01267  Uiso   1.00
C65    C     0.45520   0.27112   0.15162   0.01267  Uiso   1.00
C66    C     0.42210   0.19590   0.17240   0.01267  Uiso   1.00
C67    C     0.51480   0.14000   0.18850   0.01267  Uiso   1.00
C68    C     0.64170   0.16022   0.18272   0.01267  Uiso   1.00
C69    C     0.67820   0.23611   0.16171   0.01267  Uiso   1.00
C70    C     0.48060   0.06215   0.21465   0.01267  Uiso   1.00
C71    C     0.78710   0.42424   0.13794   0.01267  Uiso   1.00
C72    C     0.88500   0.38520   0.09910   0.01267  Uiso   1.00
C73    C     0.01060   0.41440   0.11450   0.01267  Uiso   1.00
C74    C     0.03670   0.48328   0.16918   0.01267  Uiso   1.00
C75    C     0.93690   0.52106   0.20806   0.01267  Uiso   1.00
C76    C     0.81290   0.49233   0.19273   0.01267  Uiso   1.00
C77    C     0.17000   0.51491   0.18641   0.01267  Uiso   1.00
C78    C     0.61450   0.35010   0.04110   0.01267  Uiso   1.00
C79    C     0.62490   0.41660   0.00950   0.01267  Uiso   1.00
C80    C     0.62560   0.38647   0.94847   0.01267  Uiso   1.00
C81    C     0.61520   0.28885   0.91735   0.01267  Uiso   1.00
C82    C     0.60210   0.22263   0.94813   0.01267  Uiso   1.00
C83    C     0.60200   0.25276   0.00956   0.01267  Uiso   1.00
C84    C     0.62000   0.25448   0.85058   0.01267  Uiso   1.00
C85    C     0.35160   0.25000   0.75000   0.01267  Uiso   1.00
C86    C     0.64840   0.75000   0.25000   0.01267  Uiso   1.00
O1     O     0.63410   0.55555   0.73152   0.01267  Uiso   1.00
O2     O     0.43530   0.50501   0.72167   0.01267  Uiso   1.00
O3     O     0.73730   0.97512   0.65412   0.01267  Uiso   1.00
O4     O     0.81010   0.08324   0.73436   0.01267  Uiso   1.00
O5     O     0.37200   0.81689   0.32411   0.01267  Uiso   1.00
O6     O     0.38100   0.66505   0.32535   0.01267  Uiso   1.00
O7     O     0.46330   0.97778   0.64620   0.01267  Uiso   1.00
O8     O     0.39710   0.32957   0.75687   0.01267  Uiso   1.00
O9     O     0.63410   0.94445   0.76848   0.01267  Uiso   1.00
O10    O     0.43530   0.99499   0.77833   0.01267  Uiso   1.00
O11    O     0.73730   0.52488   0.84588   0.01267  Uiso   1.00
O12    O     0.81010   0.41676   0.76564   0.01267  Uiso   1.00
O13    O     0.37200   0.68311   0.17589   0.01267  Uiso   1.00
O14    O     0.38100   0.83495   0.17465   0.01267  Uiso   1.00
O15    O     0.46330   0.52222   0.85380   0.01267  Uiso   1.00
O16    O     0.39710   0.17043   0.74313   0.01267  Uiso   1.00
O17    O     0.36590   0.44445   0.26848   0.01267  Uiso   1.00
O18    O     0.56470   0.49499   0.27833   0.01267  Uiso   1.00
O19    O     0.26270   0.02488   0.34588   0.01267  Uiso   1.00
O20    O     0.18990   0.91676   0.26564   0.01267  Uiso   1.00
O21    O     0.62800   0.18311   0.67589   0.01267  Uiso   1.00
O22    O     0.61900   0.33495   0.67465   0.01267  Uiso   1.00
O23    O     0.53670   0.02222   0.35380   0.01267  Uiso   1.00
O24    O     0.60290   0.67043   0.24313   0.01267  Uiso   1.00
O25    O     0.36590   0.05555   0.23152   0.01267  Uiso   1.00
O26    O     0.56470   0.00501   0.22167   0.01267  Uiso   1.00
O27    O     0.26270   0.47512   0.15412   0.01267  Uiso   1.00
O28    O     0.18990   0.58324   0.23436   0.01267  Uiso   1.00
O29    O     0.62800   0.31689   0.82411   0.01267  Uiso   1.00
O30    O     0.61900   0.16505   0.82535   0.01267  Uiso   1.00
O31    O     0.53670   0.47778   0.14620   0.01267  Uiso   1.00
O32    O     0.60290   0.82957   0.25687   0.01267  Uiso   1.00
