data_DARDAD_clean
_audit_creation_date              2014-07-02
_audit_creation_method            'Materials Studio'
_symmetry_space_group_name_H-M    'P1'
_symmetry_Int_Tables_number       1
_symmetry_cell_setting            triclinic
loop_
_symmetry_equiv_pos_as_xyz
  x,y,z
_cell_length_a                    10.4932
_cell_length_b                    14.4262
_cell_length_c                    23.2269
_cell_angle_alpha                 107.0520
_cell_angle_beta                  90.0000
_cell_angle_gamma                 90.0000
loop_
_atom_site_label
_atom_site_type_symbol
_atom_site_fract_x
_atom_site_fract_y
_atom_site_fract_z
_atom_site_U_iso_or_equiv
_atom_site_adp_type
_atom_site_occupancy
Lu1    Lu    0.93397   0.84664   0.77278   0.01267  Uiso   1.00
Lu2    Lu    0.93397   0.15336   0.72722   0.01267  Uiso   1.00
Lu3    Lu    0.06603   0.15336   0.22722   0.01267  Uiso   1.00
Lu4    Lu    0.06603   0.84664   0.27278   0.01267  Uiso   1.00
P1     P     0.13845   0.76882   0.87747   0.01267  Uiso   1.00
P2     P     0.13845   0.23118   0.62253   0.01267  Uiso   1.00
P3     P     0.86155   0.23118   0.12253   0.01267  Uiso   1.00
P4     P     0.86155   0.76882   0.37747   0.01267  Uiso   1.00
H1     H     0.85420   0.50050   0.82390   0.01267  Uiso   1.00
H2     H     0.22120   0.42590   0.81310   0.01267  Uiso   1.00
H3     H     0.26680   0.80120   0.77770   0.01267  Uiso   1.00
H4     H     0.47180   0.81860   0.75210   0.01267  Uiso   1.00
H5     H     0.27850   0.58690   0.84530   0.01267  Uiso   1.00
H6     H     0.90800   0.66080   0.85640   0.01267  Uiso   1.00
H7     H     0.10620   0.73810   0.07670   0.01267  Uiso   1.00
H8     H     0.59230   0.78520   0.90750   0.01267  Uiso   1.00
H9     H     0.11670   0.67930   0.97350   0.01267  Uiso   1.00
H10    H     0.38340   0.76470   0.93410   0.01267  Uiso   1.00
H11    H     0.12630   0.00860   0.06830   0.01267  Uiso   1.00
H12    H     0.13280   0.95190   0.96480   0.01267  Uiso   1.00
H13    H     0.85420   0.49950   0.67610   0.01267  Uiso   1.00
H14    H     0.22120   0.57410   0.68690   0.01267  Uiso   1.00
H15    H     0.26680   0.19880   0.72230   0.01267  Uiso   1.00
H16    H     0.47180   0.18140   0.74790   0.01267  Uiso   1.00
H17    H     0.27850   0.41310   0.65470   0.01267  Uiso   1.00
H18    H     0.90800   0.33920   0.64360   0.01267  Uiso   1.00
H19    H     0.10620   0.26190   0.42330   0.01267  Uiso   1.00
H20    H     0.59230   0.21480   0.59250   0.01267  Uiso   1.00
H21    H     0.11670   0.32070   0.52650   0.01267  Uiso   1.00
H22    H     0.38340   0.23530   0.56590   0.01267  Uiso   1.00
H23    H     0.12630   0.99140   0.43170   0.01267  Uiso   1.00
H24    H     0.13280   0.04810   0.53520   0.01267  Uiso   1.00
H25    H     0.14580   0.49950   0.17610   0.01267  Uiso   1.00
H26    H     0.77880   0.57410   0.18690   0.01267  Uiso   1.00
H27    H     0.73320   0.19880   0.22230   0.01267  Uiso   1.00
H28    H     0.52820   0.18140   0.24790   0.01267  Uiso   1.00
H29    H     0.72150   0.41310   0.15470   0.01267  Uiso   1.00
H30    H     0.09200   0.33920   0.14360   0.01267  Uiso   1.00
H31    H     0.89380   0.26190   0.92330   0.01267  Uiso   1.00
H32    H     0.40770   0.21480   0.09250   0.01267  Uiso   1.00
H33    H     0.88330   0.32070   0.02650   0.01267  Uiso   1.00
H34    H     0.61660   0.23530   0.06590   0.01267  Uiso   1.00
H35    H     0.87370   0.99140   0.93170   0.01267  Uiso   1.00
H36    H     0.86720   0.04810   0.03520   0.01267  Uiso   1.00
H37    H     0.14580   0.50050   0.32390   0.01267  Uiso   1.00
H38    H     0.77880   0.42590   0.31310   0.01267  Uiso   1.00
H39    H     0.73320   0.80120   0.27770   0.01267  Uiso   1.00
H40    H     0.52820   0.81860   0.25210   0.01267  Uiso   1.00
H41    H     0.72150   0.58690   0.34530   0.01267  Uiso   1.00
H42    H     0.09200   0.66080   0.35640   0.01267  Uiso   1.00
H43    H     0.89380   0.73810   0.57670   0.01267  Uiso   1.00
H44    H     0.40770   0.78520   0.40750   0.01267  Uiso   1.00
H45    H     0.88330   0.67930   0.47350   0.01267  Uiso   1.00
H46    H     0.61660   0.76470   0.43410   0.01267  Uiso   1.00
H47    H     0.87370   0.00860   0.56830   0.01267  Uiso   1.00
H48    H     0.86720   0.95190   0.46480   0.01267  Uiso   1.00
H49    H     0.24420   1.00000   0.75000   0.01267  Uiso   1.00
H50    H     0.75580   1.00000   0.25000   0.01267  Uiso   1.00
C1     C     0.93980   0.51800   0.82770   0.01267  Uiso   1.00
C2     C     0.30200   0.78240   0.85895   0.01267  Uiso   1.00
C3     C     0.99590   0.34230   0.78780   0.01267  Uiso   1.00
C4     C     0.10090   0.64200   0.85404   0.01267  Uiso   1.00
C5     C     0.12830   0.80950   0.95810   0.01267  Uiso   1.00
C6     C     0.55360   0.80640   0.82780   0.01267  Uiso   1.00
C7     C     0.68960   0.82140   0.81100   0.01267  Uiso   1.00
C8     C     0.03180   0.44650   0.81330   0.01267  Uiso   1.00
C9     C     0.11110   0.91530   0.15074   0.01267  Uiso   1.00
C10    C     0.15830   0.47340   0.82120   0.01267  Uiso   1.00
C11    C     0.33190   0.79820   0.80430   0.01267  Uiso   1.00
C12    C     0.45410   0.80910   0.78920   0.01267  Uiso   1.00
C13    C     0.19270   0.57000   0.84080   0.01267  Uiso   1.00
C14    C     0.97170   0.61390   0.84740   0.01267  Uiso   1.00
C15    C     0.11230   0.78150   0.05410   0.01267  Uiso   1.00
C16    C     0.52630   0.78890   0.88160   0.01267  Uiso   1.00
C17    C     0.11880   0.74580   0.99210   0.01267  Uiso   1.00
C18    C     0.40090   0.77670   0.89760   0.01267  Uiso   1.00
C19    C     0.12370   0.94220   0.04930   0.01267  Uiso   1.00
C20    C     0.12890   0.90820   0.98720   0.01267  Uiso   1.00
C21    C     0.11480   0.87880   0.08314   0.01267  Uiso   1.00
C22    C     0.93980   0.48200   0.67230   0.01267  Uiso   1.00
C23    C     0.30200   0.21760   0.64105   0.01267  Uiso   1.00
C24    C     0.99590   0.65770   0.71220   0.01267  Uiso   1.00
C25    C     0.10090   0.35800   0.64596   0.01267  Uiso   1.00
C26    C     0.12830   0.19050   0.54190   0.01267  Uiso   1.00
C27    C     0.55360   0.19360   0.67220   0.01267  Uiso   1.00
C28    C     0.68960   0.17860   0.68900   0.01267  Uiso   1.00
C29    C     0.03180   0.55350   0.68670   0.01267  Uiso   1.00
C30    C     0.11110   0.08470   0.34926   0.01267  Uiso   1.00
C31    C     0.15830   0.52660   0.67880   0.01267  Uiso   1.00
C32    C     0.33190   0.20180   0.69570   0.01267  Uiso   1.00
C33    C     0.45410   0.19090   0.71080   0.01267  Uiso   1.00
C34    C     0.19270   0.43000   0.65920   0.01267  Uiso   1.00
C35    C     0.97170   0.38610   0.65260   0.01267  Uiso   1.00
C36    C     0.11230   0.21850   0.44590   0.01267  Uiso   1.00
C37    C     0.52630   0.21110   0.61840   0.01267  Uiso   1.00
C38    C     0.11880   0.25420   0.50790   0.01267  Uiso   1.00
C39    C     0.40090   0.22330   0.60240   0.01267  Uiso   1.00
C40    C     0.12370   0.05780   0.45070   0.01267  Uiso   1.00
C41    C     0.12890   0.09180   0.51280   0.01267  Uiso   1.00
C42    C     0.11480   0.12120   0.41686   0.01267  Uiso   1.00
C43    C     0.06020   0.48200   0.17230   0.01267  Uiso   1.00
C44    C     0.69800   0.21760   0.14105   0.01267  Uiso   1.00
C45    C     0.00410   0.65770   0.21220   0.01267  Uiso   1.00
C46    C     0.89910   0.35800   0.14596   0.01267  Uiso   1.00
C47    C     0.87170   0.19050   0.04190   0.01267  Uiso   1.00
C48    C     0.44640   0.19360   0.17220   0.01267  Uiso   1.00
C49    C     0.31040   0.17860   0.18900   0.01267  Uiso   1.00
C50    C     0.96820   0.55350   0.18670   0.01267  Uiso   1.00
C51    C     0.88890   0.08470   0.84926   0.01267  Uiso   1.00
C52    C     0.84170   0.52660   0.17880   0.01267  Uiso   1.00
C53    C     0.66810   0.20180   0.19570   0.01267  Uiso   1.00
C54    C     0.54590   0.19090   0.21080   0.01267  Uiso   1.00
C55    C     0.80730   0.43000   0.15920   0.01267  Uiso   1.00
C56    C     0.02830   0.38610   0.15260   0.01267  Uiso   1.00
C57    C     0.88770   0.21850   0.94590   0.01267  Uiso   1.00
C58    C     0.47370   0.21110   0.11840   0.01267  Uiso   1.00
C59    C     0.88120   0.25420   0.00790   0.01267  Uiso   1.00
C60    C     0.59910   0.22330   0.10240   0.01267  Uiso   1.00
C61    C     0.87630   0.05780   0.95070   0.01267  Uiso   1.00
C62    C     0.87110   0.09180   0.01280   0.01267  Uiso   1.00
C63    C     0.88520   0.12120   0.91686   0.01267  Uiso   1.00
C64    C     0.06020   0.51800   0.32770   0.01267  Uiso   1.00
C65    C     0.69800   0.78240   0.35895   0.01267  Uiso   1.00
C66    C     0.00410   0.34230   0.28780   0.01267  Uiso   1.00
C67    C     0.89910   0.64200   0.35404   0.01267  Uiso   1.00
C68    C     0.87170   0.80950   0.45810   0.01267  Uiso   1.00
C69    C     0.44640   0.80640   0.32780   0.01267  Uiso   1.00
C70    C     0.31040   0.82140   0.31100   0.01267  Uiso   1.00
C71    C     0.96820   0.44650   0.31330   0.01267  Uiso   1.00
C72    C     0.88890   0.91530   0.65074   0.01267  Uiso   1.00
C73    C     0.84170   0.47340   0.32120   0.01267  Uiso   1.00
C74    C     0.66810   0.79820   0.30430   0.01267  Uiso   1.00
C75    C     0.54590   0.80910   0.28920   0.01267  Uiso   1.00
C76    C     0.80730   0.57000   0.34080   0.01267  Uiso   1.00
C77    C     0.02830   0.61390   0.34740   0.01267  Uiso   1.00
C78    C     0.88770   0.78150   0.55410   0.01267  Uiso   1.00
C79    C     0.47370   0.78890   0.38160   0.01267  Uiso   1.00
C80    C     0.88120   0.74580   0.49210   0.01267  Uiso   1.00
C81    C     0.59910   0.77670   0.39760   0.01267  Uiso   1.00
C82    C     0.87630   0.94220   0.54930   0.01267  Uiso   1.00
C83    C     0.87110   0.90820   0.48720   0.01267  Uiso   1.00
C84    C     0.88520   0.87880   0.58314   0.01267  Uiso   1.00
C85    C     0.15550   1.00000   0.75000   0.01267  Uiso   1.00
C86    C     0.84450   1.00000   0.25000   0.01267  Uiso   1.00
O1     O     0.05140   0.82630   0.84953   0.01267  Uiso   1.00
O2     O     0.70770   0.84470   0.76299   0.01267  Uiso   1.00
O3     O     0.07940   0.27810   0.78027   0.01267  Uiso   1.00
O4     O     0.88400   0.31990   0.77069   0.01267  Uiso   1.00
O5     O     0.12070   0.00480   0.17480   0.01267  Uiso   1.00
O6     O     0.78000   0.81090   0.84324   0.01267  Uiso   1.00
O7     O     0.09870   0.85450   0.17877   0.01267  Uiso   1.00
O8     O     0.11160   0.93110   0.76258   0.01267  Uiso   1.00
O9     O     0.05140   0.17370   0.65047   0.01267  Uiso   1.00
O10    O     0.70770   0.15530   0.73701   0.01267  Uiso   1.00
O11    O     0.07940   0.72190   0.71973   0.01267  Uiso   1.00
O12    O     0.88400   0.68010   0.72931   0.01267  Uiso   1.00
O13    O     0.12070   0.99520   0.32520   0.01267  Uiso   1.00
O14    O     0.78000   0.18910   0.65676   0.01267  Uiso   1.00
O15    O     0.09870   0.14550   0.32123   0.01267  Uiso   1.00
O16    O     0.11160   0.06890   0.73742   0.01267  Uiso   1.00
O17    O     0.94860   0.17370   0.15047   0.01267  Uiso   1.00
O18    O     0.29230   0.15530   0.23701   0.01267  Uiso   1.00
O19    O     0.92060   0.72190   0.21973   0.01267  Uiso   1.00
O20    O     0.11600   0.68010   0.22931   0.01267  Uiso   1.00
O21    O     0.87930   0.99520   0.82520   0.01267  Uiso   1.00
O22    O     0.22000   0.18910   0.15676   0.01267  Uiso   1.00
O23    O     0.90130   0.14550   0.82123   0.01267  Uiso   1.00
O24    O     0.88840   0.06890   0.23742   0.01267  Uiso   1.00
O25    O     0.94860   0.82630   0.34953   0.01267  Uiso   1.00
O26    O     0.29230   0.84470   0.26299   0.01267  Uiso   1.00
O27    O     0.92060   0.27810   0.28027   0.01267  Uiso   1.00
O28    O     0.11600   0.31990   0.27069   0.01267  Uiso   1.00
O29    O     0.87930   0.00480   0.67480   0.01267  Uiso   1.00
O30    O     0.22000   0.81090   0.34324   0.01267  Uiso   1.00
O31    O     0.90130   0.85450   0.67877   0.01267  Uiso   1.00
O32    O     0.88840   0.93110   0.26258   0.01267  Uiso   1.00
