data_DARFEJ_clean
_audit_creation_date              2014-07-02
_audit_creation_method            'Materials Studio'
_symmetry_space_group_name_H-M    'P1'
_symmetry_Int_Tables_number       1
_symmetry_cell_setting            triclinic
loop_
_symmetry_equiv_pos_as_xyz
  x,y,z
_cell_length_a                    10.4767
_cell_length_b                    14.4523
_cell_length_c                    23.4337
_cell_angle_alpha                 107.5770
_cell_angle_beta                  90.0000
_cell_angle_gamma                 90.0000
loop_
_atom_site_label
_atom_site_type_symbol
_atom_site_fract_x
_atom_site_fract_y
_atom_site_fract_z
_atom_site_U_iso_or_equiv
_atom_site_adp_type
_atom_site_occupancy
Ho1    Ho    0.93007   0.84764   0.77301   0.01267  Uiso   1.00
Ho2    Ho    0.93007   0.15235   0.72699   0.01267  Uiso   1.00
Ho3    Ho    0.06993   0.15235   0.22699   0.01267  Uiso   1.00
Ho4    Ho    0.06993   0.84764   0.27301   0.01267  Uiso   1.00
P1     P     0.86532   0.77132   0.37813   0.01267  Uiso   1.00
P2     P     0.86532   0.22868   0.12187   0.01267  Uiso   1.00
P3     P     0.13468   0.22868   0.62187   0.01267  Uiso   1.00
P4     P     0.13468   0.77132   0.87813   0.01267  Uiso   1.00
H1     H     0.88290   0.67820   0.47050   0.01267  Uiso   1.00
H2     H     0.89270   0.73320   0.57410   0.01267  Uiso   1.00
H3     H     0.87410   0.00650   0.57060   0.01267  Uiso   1.00
H4     H     0.86810   0.95340   0.46720   0.01267  Uiso   1.00
H5     H     0.62040   0.76870   0.43420   0.01267  Uiso   1.00
H6     H     0.41020   0.79110   0.40800   0.01267  Uiso   1.00
H7     H     0.53370   0.82080   0.25260   0.01267  Uiso   1.00
H8     H     0.74180   0.80050   0.27860   0.01267  Uiso   1.00
H9     H     0.09630   0.66620   0.35760   0.01267  Uiso   1.00
H10    H     0.15390   0.50520   0.32200   0.01267  Uiso   1.00
H11    H     0.78410   0.42770   0.30950   0.01267  Uiso   1.00
H12    H     0.72630   0.58930   0.34390   0.01267  Uiso   1.00
H13    H     0.88290   0.32180   0.02950   0.01267  Uiso   1.00
H14    H     0.89270   0.26680   0.92590   0.01267  Uiso   1.00
H15    H     0.87410   0.99350   0.92940   0.01267  Uiso   1.00
H16    H     0.86810   0.04660   0.03280   0.01267  Uiso   1.00
H17    H     0.62040   0.23130   0.06580   0.01267  Uiso   1.00
H18    H     0.41020   0.20890   0.09200   0.01267  Uiso   1.00
H19    H     0.53370   0.17920   0.24740   0.01267  Uiso   1.00
H20    H     0.74180   0.19950   0.22140   0.01267  Uiso   1.00
H21    H     0.09630   0.33380   0.14240   0.01267  Uiso   1.00
H22    H     0.15390   0.49480   0.17800   0.01267  Uiso   1.00
H23    H     0.78410   0.57230   0.19050   0.01267  Uiso   1.00
H24    H     0.72630   0.41070   0.15610   0.01267  Uiso   1.00
H25    H     0.11710   0.32180   0.52950   0.01267  Uiso   1.00
H26    H     0.10730   0.26680   0.42590   0.01267  Uiso   1.00
H27    H     0.12590   0.99350   0.42940   0.01267  Uiso   1.00
H28    H     0.13190   0.04660   0.53280   0.01267  Uiso   1.00
H29    H     0.37960   0.23130   0.56580   0.01267  Uiso   1.00
H30    H     0.58980   0.20890   0.59200   0.01267  Uiso   1.00
H31    H     0.46630   0.17920   0.74740   0.01267  Uiso   1.00
H32    H     0.25820   0.19950   0.72140   0.01267  Uiso   1.00
H33    H     0.90370   0.33380   0.64240   0.01267  Uiso   1.00
H34    H     0.84610   0.49480   0.67800   0.01267  Uiso   1.00
H35    H     0.21590   0.57230   0.69050   0.01267  Uiso   1.00
H36    H     0.27370   0.41070   0.65610   0.01267  Uiso   1.00
H37    H     0.11710   0.67820   0.97050   0.01267  Uiso   1.00
H38    H     0.10730   0.73320   0.07410   0.01267  Uiso   1.00
H39    H     0.12590   0.00650   0.07060   0.01267  Uiso   1.00
H40    H     0.13190   0.95340   0.96720   0.01267  Uiso   1.00
H41    H     0.37960   0.76870   0.93420   0.01267  Uiso   1.00
H42    H     0.58980   0.79110   0.90800   0.01267  Uiso   1.00
H43    H     0.46630   0.82080   0.75260   0.01267  Uiso   1.00
H44    H     0.25820   0.80050   0.77860   0.01267  Uiso   1.00
H45    H     0.90370   0.66620   0.85760   0.01267  Uiso   1.00
H46    H     0.84610   0.50520   0.82200   0.01267  Uiso   1.00
H47    H     0.21590   0.42770   0.80950   0.01267  Uiso   1.00
H48    H     0.27370   0.58930   0.84390   0.01267  Uiso   1.00
H49    H     0.24760   0.00000   0.75000   0.01267  Uiso   1.00
H50    H     0.75240   0.00000   0.25000   0.01267  Uiso   1.00
C1     C     0.87460   0.81050   0.45846   0.01267  Uiso   1.00
C2     C     0.88160   0.74440   0.49048   0.01267  Uiso   1.00
C3     C     0.88660   0.77760   0.55261   0.01267  Uiso   1.00
C4     C     0.88270   0.87540   0.58269   0.01267  Uiso   1.00
C5     C     0.87610   0.94030   0.55055   0.01267  Uiso   1.00
C6     C     0.87220   0.90870   0.48853   0.01267  Uiso   1.00
C7     C     0.88690   0.90940   0.64992   0.01267  Uiso   1.00
C8     C     0.70120   0.78500   0.35953   0.01267  Uiso   1.00
C9     C     0.60280   0.78030   0.39810   0.01267  Uiso   1.00
C10    C     0.47680   0.79310   0.38210   0.01267  Uiso   1.00
C11    C     0.45110   0.80890   0.32776   0.01267  Uiso   1.00
C12    C     0.55100   0.81110   0.28930   0.01267  Uiso   1.00
C13    C     0.67550   0.79910   0.30473   0.01267  Uiso   1.00
C14    C     0.31720   0.82410   0.31101   0.01267  Uiso   1.00
C15    C     0.90420   0.64440   0.35311   0.01267  Uiso   1.00
C16    C     0.03370   0.61840   0.34740   0.01267  Uiso   1.00
C17    C     0.06810   0.52230   0.32673   0.01267  Uiso   1.00
C18    C     0.97410   0.45000   0.31278   0.01267  Uiso   1.00
C19    C     0.84670   0.47560   0.31898   0.01267  Uiso   1.00
C20    C     0.81220   0.57250   0.33937   0.01267  Uiso   1.00
C21    C     0.00990   0.34560   0.28686   0.01267  Uiso   1.00
C22    C     0.87460   0.18950   0.04154   0.01267  Uiso   1.00
C23    C     0.88160   0.25560   0.00952   0.01267  Uiso   1.00
C24    C     0.88660   0.22240   0.94739   0.01267  Uiso   1.00
C25    C     0.88270   0.12460   0.91731   0.01267  Uiso   1.00
C26    C     0.87610   0.05970   0.94945   0.01267  Uiso   1.00
C27    C     0.87220   0.09130   0.01147   0.01267  Uiso   1.00
C28    C     0.88690   0.09060   0.85008   0.01267  Uiso   1.00
C29    C     0.70120   0.21500   0.14047   0.01267  Uiso   1.00
C30    C     0.60280   0.21970   0.10190   0.01267  Uiso   1.00
C31    C     0.47680   0.20690   0.11790   0.01267  Uiso   1.00
C32    C     0.45110   0.19110   0.17224   0.01267  Uiso   1.00
C33    C     0.55100   0.18890   0.21070   0.01267  Uiso   1.00
C34    C     0.67550   0.20090   0.19527   0.01267  Uiso   1.00
C35    C     0.31720   0.17590   0.18899   0.01267  Uiso   1.00
C36    C     0.90420   0.35560   0.14689   0.01267  Uiso   1.00
C37    C     0.03370   0.38160   0.15260   0.01267  Uiso   1.00
C38    C     0.06810   0.47770   0.17327   0.01267  Uiso   1.00
C39    C     0.97410   0.55000   0.18722   0.01267  Uiso   1.00
C40    C     0.84670   0.52440   0.18102   0.01267  Uiso   1.00
C41    C     0.81220   0.42750   0.16063   0.01267  Uiso   1.00
C42    C     0.00990   0.65440   0.21314   0.01267  Uiso   1.00
C43    C     0.12540   0.18950   0.54154   0.01267  Uiso   1.00
C44    C     0.11840   0.25560   0.50952   0.01267  Uiso   1.00
C45    C     0.11340   0.22240   0.44739   0.01267  Uiso   1.00
C46    C     0.11730   0.12460   0.41731   0.01267  Uiso   1.00
C47    C     0.12390   0.05970   0.44945   0.01267  Uiso   1.00
C48    C     0.12780   0.09130   0.51147   0.01267  Uiso   1.00
C49    C     0.11310   0.09060   0.35008   0.01267  Uiso   1.00
C50    C     0.29880   0.21500   0.64047   0.01267  Uiso   1.00
C51    C     0.39720   0.21970   0.60190   0.01267  Uiso   1.00
C52    C     0.52320   0.20690   0.61790   0.01267  Uiso   1.00
C53    C     0.54890   0.19110   0.67224   0.01267  Uiso   1.00
C54    C     0.44900   0.18890   0.71070   0.01267  Uiso   1.00
C55    C     0.32450   0.20090   0.69527   0.01267  Uiso   1.00
C56    C     0.68280   0.17590   0.68899   0.01267  Uiso   1.00
C57    C     0.09580   0.35560   0.64689   0.01267  Uiso   1.00
C58    C     0.96630   0.38160   0.65260   0.01267  Uiso   1.00
C59    C     0.93190   0.47770   0.67327   0.01267  Uiso   1.00
C60    C     0.02590   0.55000   0.68722   0.01267  Uiso   1.00
C61    C     0.15330   0.52440   0.68102   0.01267  Uiso   1.00
C62    C     0.18780   0.42750   0.66063   0.01267  Uiso   1.00
C63    C     0.99010   0.65440   0.71314   0.01267  Uiso   1.00
C64    C     0.12540   0.81050   0.95846   0.01267  Uiso   1.00
C65    C     0.11840   0.74440   0.99048   0.01267  Uiso   1.00
C66    C     0.11340   0.77760   0.05261   0.01267  Uiso   1.00
C67    C     0.11730   0.87540   0.08269   0.01267  Uiso   1.00
C68    C     0.12390   0.94030   0.05055   0.01267  Uiso   1.00
C69    C     0.12780   0.90870   0.98853   0.01267  Uiso   1.00
C70    C     0.11310   0.90940   0.14992   0.01267  Uiso   1.00
C71    C     0.29880   0.78500   0.85953   0.01267  Uiso   1.00
C72    C     0.39720   0.78030   0.89810   0.01267  Uiso   1.00
C73    C     0.52320   0.79310   0.88210   0.01267  Uiso   1.00
C74    C     0.54890   0.80890   0.82776   0.01267  Uiso   1.00
C75    C     0.44900   0.81110   0.78930   0.01267  Uiso   1.00
C76    C     0.32450   0.79910   0.80473   0.01267  Uiso   1.00
C77    C     0.68280   0.82410   0.81101   0.01267  Uiso   1.00
C78    C     0.09580   0.64440   0.85311   0.01267  Uiso   1.00
C79    C     0.96630   0.61840   0.84740   0.01267  Uiso   1.00
C80    C     0.93190   0.52230   0.82673   0.01267  Uiso   1.00
C81    C     0.02590   0.45000   0.81278   0.01267  Uiso   1.00
C82    C     0.15330   0.47560   0.81898   0.01267  Uiso   1.00
C83    C     0.18780   0.57250   0.83937   0.01267  Uiso   1.00
C84    C     0.99010   0.34560   0.78686   0.01267  Uiso   1.00
C85    C     0.15890   0.00000   0.75000   0.01267  Uiso   1.00
C86    C     0.84110   0.00000   0.25000   0.01267  Uiso   1.00
O1     O     0.89580   0.84600   0.67619   0.01267  Uiso   1.00
O2     O     0.87970   0.99898   0.67556   0.01267  Uiso   1.00
O3     O     0.22480   0.81470   0.34321   0.01267  Uiso   1.00
O4     O     0.29830   0.84720   0.26333   0.01267  Uiso   1.00
O5     O     0.12350   0.32250   0.27069   0.01267  Uiso   1.00
O6     O     0.92510   0.28110   0.27910   0.01267  Uiso   1.00
O7     O     0.95230   0.83060   0.35183   0.01267  Uiso   1.00
O8     O     0.11120   0.92810   0.75889   0.01267  Uiso   1.00
O9     O     0.89580   0.15400   0.82381   0.01267  Uiso   1.00
O10    O     0.87970   0.00102   0.82444   0.01267  Uiso   1.00
O11    O     0.22480   0.18530   0.15679   0.01267  Uiso   1.00
O12    O     0.29830   0.15280   0.23667   0.01267  Uiso   1.00
O13    O     0.12350   0.67750   0.22931   0.01267  Uiso   1.00
O14    O     0.92510   0.71890   0.22090   0.01267  Uiso   1.00
O15    O     0.95230   0.16940   0.14817   0.01267  Uiso   1.00
O16    O     0.11120   0.07190   0.74111   0.01267  Uiso   1.00
O17    O     0.10420   0.15400   0.32381   0.01267  Uiso   1.00
O18    O     0.12030   0.00102   0.32444   0.01267  Uiso   1.00
O19    O     0.77520   0.18530   0.65679   0.01267  Uiso   1.00
O20    O     0.70170   0.15280   0.73667   0.01267  Uiso   1.00
O21    O     0.87650   0.67750   0.72931   0.01267  Uiso   1.00
O22    O     0.07490   0.71890   0.72090   0.01267  Uiso   1.00
O23    O     0.04770   0.16940   0.64817   0.01267  Uiso   1.00
O24    O     0.88880   0.07190   0.24111   0.01267  Uiso   1.00
O25    O     0.10420   0.84600   0.17619   0.01267  Uiso   1.00
O26    O     0.12030   0.99898   0.17556   0.01267  Uiso   1.00
O27    O     0.77520   0.81470   0.84321   0.01267  Uiso   1.00
O28    O     0.70170   0.84720   0.76333   0.01267  Uiso   1.00
O29    O     0.87650   0.32250   0.77069   0.01267  Uiso   1.00
O30    O     0.07490   0.28110   0.77910   0.01267  Uiso   1.00
O31    O     0.04770   0.83060   0.85183   0.01267  Uiso   1.00
O32    O     0.88880   0.92810   0.25889   0.01267  Uiso   1.00
