data_DARFOT_clean
_audit_creation_date              2014-07-02
_audit_creation_method            'Materials Studio'
_symmetry_space_group_name_H-M    'P1'
_symmetry_Int_Tables_number       1
_symmetry_cell_setting            triclinic
loop_
_symmetry_equiv_pos_as_xyz
  x,y,z
_cell_length_a                    10.4577
_cell_length_b                    14.4014
_cell_length_c                    23.3524
_cell_angle_alpha                 107.3710
_cell_angle_beta                  90.0000
_cell_angle_gamma                 90.0000
loop_
_atom_site_label
_atom_site_type_symbol
_atom_site_fract_x
_atom_site_fract_y
_atom_site_fract_z
_atom_site_U_iso_or_equiv
_atom_site_adp_type
_atom_site_occupancy
Tm1    Tm    0.93061   0.84810   0.77284   0.01267  Uiso   1.00
Tm2    Tm    0.93061   0.15190   0.72716   0.01267  Uiso   1.00
Tm3    Tm    0.06939   0.15190   0.22716   0.01267  Uiso   1.00
Tm4    Tm    0.06939   0.84810   0.27284   0.01267  Uiso   1.00
P1     P     0.86638   0.77154   0.37751   0.01267  Uiso   1.00
P2     P     0.86638   0.22846   0.12249   0.01267  Uiso   1.00
P3     P     0.13362   0.22846   0.62249   0.01267  Uiso   1.00
P4     P     0.13362   0.77154   0.87751   0.01267  Uiso   1.00
H1     H     0.88990   0.67860   0.47150   0.01267  Uiso   1.00
H2     H     0.89930   0.73340   0.57410   0.01267  Uiso   1.00
H3     H     0.86700   0.00830   0.57060   0.01267  Uiso   1.00
H4     H     0.86950   0.95460   0.46710   0.01267  Uiso   1.00
H5     H     0.62040   0.76890   0.43440   0.01267  Uiso   1.00
H6     H     0.41150   0.79320   0.40910   0.01267  Uiso   1.00
H7     H     0.53290   0.82310   0.25190   0.01267  Uiso   1.00
H8     H     0.73970   0.79850   0.27780   0.01267  Uiso   1.00
H9     H     0.09770   0.66610   0.35870   0.01267  Uiso   1.00
H10    H     0.15420   0.49850   0.31990   0.01267  Uiso   1.00
H11    H     0.78220   0.42710   0.30810   0.01267  Uiso   1.00
H12    H     0.72600   0.59010   0.34460   0.01267  Uiso   1.00
H13    H     0.88990   0.32140   0.02850   0.01267  Uiso   1.00
H14    H     0.89930   0.26660   0.92590   0.01267  Uiso   1.00
H15    H     0.86700   0.99170   0.92940   0.01267  Uiso   1.00
H16    H     0.86950   0.04540   0.03290   0.01267  Uiso   1.00
H17    H     0.62040   0.23110   0.06560   0.01267  Uiso   1.00
H18    H     0.41150   0.20680   0.09090   0.01267  Uiso   1.00
H19    H     0.53290   0.17690   0.24810   0.01267  Uiso   1.00
H20    H     0.73970   0.20150   0.22220   0.01267  Uiso   1.00
H21    H     0.09770   0.33390   0.14130   0.01267  Uiso   1.00
H22    H     0.15420   0.50150   0.18010   0.01267  Uiso   1.00
H23    H     0.78220   0.57290   0.19190   0.01267  Uiso   1.00
H24    H     0.72600   0.40990   0.15540   0.01267  Uiso   1.00
H25    H     0.11010   0.32140   0.52850   0.01267  Uiso   1.00
H26    H     0.10070   0.26660   0.42590   0.01267  Uiso   1.00
H27    H     0.13300   0.99170   0.42940   0.01267  Uiso   1.00
H28    H     0.13050   0.04540   0.53290   0.01267  Uiso   1.00
H29    H     0.37960   0.23110   0.56560   0.01267  Uiso   1.00
H30    H     0.58850   0.20680   0.59090   0.01267  Uiso   1.00
H31    H     0.46710   0.17690   0.74810   0.01267  Uiso   1.00
H32    H     0.26030   0.20150   0.72220   0.01267  Uiso   1.00
H33    H     0.90230   0.33390   0.64130   0.01267  Uiso   1.00
H34    H     0.84580   0.50150   0.68010   0.01267  Uiso   1.00
H35    H     0.21780   0.57290   0.69190   0.01267  Uiso   1.00
H36    H     0.27400   0.40990   0.65540   0.01267  Uiso   1.00
H37    H     0.11010   0.67860   0.97150   0.01267  Uiso   1.00
H38    H     0.10070   0.73340   0.07410   0.01267  Uiso   1.00
H39    H     0.13300   0.00830   0.07060   0.01267  Uiso   1.00
H40    H     0.13050   0.95460   0.96710   0.01267  Uiso   1.00
H41    H     0.37960   0.76890   0.93440   0.01267  Uiso   1.00
H42    H     0.58850   0.79320   0.90910   0.01267  Uiso   1.00
H43    H     0.46710   0.82310   0.75190   0.01267  Uiso   1.00
H44    H     0.26030   0.79850   0.77780   0.01267  Uiso   1.00
H45    H     0.90230   0.66610   0.85870   0.01267  Uiso   1.00
H46    H     0.84580   0.49850   0.81990   0.01267  Uiso   1.00
H47    H     0.21780   0.42710   0.80810   0.01267  Uiso   1.00
H48    H     0.27400   0.59010   0.84460   0.01267  Uiso   1.00
H49    H     0.24520   0.00000   0.75000   0.01267  Uiso   1.00
H50    H     0.75480   0.00000   0.25000   0.01267  Uiso   1.00
C1     C     0.87500   0.80980   0.45750   0.01267  Uiso   1.00
C2     C     0.88600   0.74500   0.49100   0.01267  Uiso   1.00
C3     C     0.89110   0.77780   0.55240   0.01267  Uiso   1.00
C4     C     0.88420   0.87570   0.58240   0.01267  Uiso   1.00
C5     C     0.87340   0.94210   0.55050   0.01267  Uiso   1.00
C6     C     0.87220   0.90960   0.48860   0.01267  Uiso   1.00
C7     C     0.88840   0.90990   0.65000   0.01267  Uiso   1.00
C8     C     0.70130   0.78490   0.35890   0.01267  Uiso   1.00
C9     C     0.60260   0.78070   0.39820   0.01267  Uiso   1.00
C10    C     0.47730   0.79440   0.38260   0.01267  Uiso   1.00
C11    C     0.44880   0.80970   0.32850   0.01267  Uiso   1.00
C12    C     0.55000   0.81230   0.28850   0.01267  Uiso   1.00
C13    C     0.67350   0.79860   0.30450   0.01267  Uiso   1.00
C14    C     0.31330   0.82580   0.31040   0.01267  Uiso   1.00
C15    C     0.90440   0.64480   0.35300   0.01267  Uiso   1.00
C16    C     0.03460   0.61860   0.34780   0.01267  Uiso   1.00
C17    C     0.06890   0.51720   0.32540   0.01267  Uiso   1.00
C18    C     0.97400   0.44940   0.31250   0.01267  Uiso   1.00
C19    C     0.84510   0.47490   0.31830   0.01267  Uiso   1.00
C20    C     0.81190   0.57280   0.33950   0.01267  Uiso   1.00
C21    C     0.00920   0.34360   0.28790   0.01267  Uiso   1.00
C22    C     0.87500   0.19020   0.04250   0.01267  Uiso   1.00
C23    C     0.88600   0.25500   0.00900   0.01267  Uiso   1.00
C24    C     0.89110   0.22220   0.94760   0.01267  Uiso   1.00
C25    C     0.88420   0.12430   0.91760   0.01267  Uiso   1.00
C26    C     0.87340   0.05790   0.94950   0.01267  Uiso   1.00
C27    C     0.87220   0.09040   0.01140   0.01267  Uiso   1.00
C28    C     0.88840   0.09010   0.85000   0.01267  Uiso   1.00
C29    C     0.70130   0.21510   0.14110   0.01267  Uiso   1.00
C30    C     0.60260   0.21930   0.10180   0.01267  Uiso   1.00
C31    C     0.47730   0.20560   0.11740   0.01267  Uiso   1.00
C32    C     0.44880   0.19030   0.17150   0.01267  Uiso   1.00
C33    C     0.55000   0.18770   0.21150   0.01267  Uiso   1.00
C34    C     0.67350   0.20140   0.19550   0.01267  Uiso   1.00
C35    C     0.31330   0.17420   0.18960   0.01267  Uiso   1.00
C36    C     0.90440   0.35520   0.14700   0.01267  Uiso   1.00
C37    C     0.03460   0.38140   0.15220   0.01267  Uiso   1.00
C38    C     0.06890   0.48280   0.17460   0.01267  Uiso   1.00
C39    C     0.97400   0.55060   0.18750   0.01267  Uiso   1.00
C40    C     0.84510   0.52510   0.18170   0.01267  Uiso   1.00
C41    C     0.81190   0.42720   0.16050   0.01267  Uiso   1.00
C42    C     0.00920   0.65640   0.21210   0.01267  Uiso   1.00
C43    C     0.12500   0.19020   0.54250   0.01267  Uiso   1.00
C44    C     0.11400   0.25500   0.50900   0.01267  Uiso   1.00
C45    C     0.10890   0.22220   0.44760   0.01267  Uiso   1.00
C46    C     0.11580   0.12430   0.41760   0.01267  Uiso   1.00
C47    C     0.12660   0.05790   0.44950   0.01267  Uiso   1.00
C48    C     0.12780   0.09040   0.51140   0.01267  Uiso   1.00
C49    C     0.11160   0.09010   0.35000   0.01267  Uiso   1.00
C50    C     0.29870   0.21510   0.64110   0.01267  Uiso   1.00
C51    C     0.39740   0.21930   0.60180   0.01267  Uiso   1.00
C52    C     0.52270   0.20560   0.61740   0.01267  Uiso   1.00
C53    C     0.55120   0.19030   0.67150   0.01267  Uiso   1.00
C54    C     0.45000   0.18770   0.71150   0.01267  Uiso   1.00
C55    C     0.32650   0.20140   0.69550   0.01267  Uiso   1.00
C56    C     0.68670   0.17420   0.68960   0.01267  Uiso   1.00
C57    C     0.09560   0.35520   0.64700   0.01267  Uiso   1.00
C58    C     0.96540   0.38140   0.65220   0.01267  Uiso   1.00
C59    C     0.93110   0.48280   0.67460   0.01267  Uiso   1.00
C60    C     0.02600   0.55060   0.68750   0.01267  Uiso   1.00
C61    C     0.15490   0.52510   0.68170   0.01267  Uiso   1.00
C62    C     0.18810   0.42720   0.66050   0.01267  Uiso   1.00
C63    C     0.99080   0.65640   0.71210   0.01267  Uiso   1.00
C64    C     0.12500   0.80980   0.95750   0.01267  Uiso   1.00
C65    C     0.11400   0.74500   0.99100   0.01267  Uiso   1.00
C66    C     0.10890   0.77780   0.05240   0.01267  Uiso   1.00
C67    C     0.11580   0.87570   0.08240   0.01267  Uiso   1.00
C68    C     0.12660   0.94210   0.05050   0.01267  Uiso   1.00
C69    C     0.12780   0.90960   0.98860   0.01267  Uiso   1.00
C70    C     0.11160   0.90990   0.15000   0.01267  Uiso   1.00
C71    C     0.29870   0.78490   0.85890   0.01267  Uiso   1.00
C72    C     0.39740   0.78070   0.89820   0.01267  Uiso   1.00
C73    C     0.52270   0.79440   0.88260   0.01267  Uiso   1.00
C74    C     0.55120   0.80970   0.82850   0.01267  Uiso   1.00
C75    C     0.45000   0.81230   0.78850   0.01267  Uiso   1.00
C76    C     0.32650   0.79860   0.80450   0.01267  Uiso   1.00
C77    C     0.68670   0.82580   0.81040   0.01267  Uiso   1.00
C78    C     0.09560   0.64480   0.85300   0.01267  Uiso   1.00
C79    C     0.96540   0.61860   0.84780   0.01267  Uiso   1.00
C80    C     0.93110   0.51720   0.82540   0.01267  Uiso   1.00
C81    C     0.02600   0.44940   0.81250   0.01267  Uiso   1.00
C82    C     0.15490   0.47490   0.81830   0.01267  Uiso   1.00
C83    C     0.18810   0.57280   0.83950   0.01267  Uiso   1.00
C84    C     0.99080   0.34360   0.78790   0.01267  Uiso   1.00
C85    C     0.15620   0.00000   0.75000   0.01267  Uiso   1.00
C86    C     0.84380   0.00000   0.25000   0.01267  Uiso   1.00
O1     O     0.89730   0.84660   0.67620   0.01267  Uiso   1.00
O2     O     0.87670   0.00050   0.67560   0.01267  Uiso   1.00
O3     O     0.22230   0.81480   0.34360   0.01267  Uiso   1.00
O4     O     0.29680   0.84730   0.26220   0.01267  Uiso   1.00
O5     O     0.12280   0.32090   0.26970   0.01267  Uiso   1.00
O6     O     0.92420   0.28010   0.27960   0.01267  Uiso   1.00
O7     O     0.95090   0.83200   0.35120   0.01267  Uiso   1.00
O8     O     0.10940   0.92840   0.75890   0.01267  Uiso   1.00
O9     O     0.89730   0.15340   0.82380   0.01267  Uiso   1.00
O10    O     0.87670   0.99950   0.82440   0.01267  Uiso   1.00
O11    O     0.22230   0.18520   0.15640   0.01267  Uiso   1.00
O12    O     0.29680   0.15270   0.23780   0.01267  Uiso   1.00
O13    O     0.12280   0.67910   0.23030   0.01267  Uiso   1.00
O14    O     0.92420   0.71990   0.22040   0.01267  Uiso   1.00
O15    O     0.95090   0.16800   0.14880   0.01267  Uiso   1.00
O16    O     0.10940   0.07160   0.74110   0.01267  Uiso   1.00
O17    O     0.10270   0.15340   0.32380   0.01267  Uiso   1.00
O18    O     0.12330   0.99950   0.32440   0.01267  Uiso   1.00
O19    O     0.77770   0.18520   0.65640   0.01267  Uiso   1.00
O20    O     0.70320   0.15270   0.73780   0.01267  Uiso   1.00
O21    O     0.87720   0.67910   0.73030   0.01267  Uiso   1.00
O22    O     0.07580   0.71990   0.72040   0.01267  Uiso   1.00
O23    O     0.04910   0.16800   0.64880   0.01267  Uiso   1.00
O24    O     0.89060   0.07160   0.24110   0.01267  Uiso   1.00
O25    O     0.10270   0.84660   0.17620   0.01267  Uiso   1.00
O26    O     0.12330   0.00050   0.17560   0.01267  Uiso   1.00
O27    O     0.77770   0.81480   0.84360   0.01267  Uiso   1.00
O28    O     0.70320   0.84730   0.76220   0.01267  Uiso   1.00
O29    O     0.87720   0.32090   0.76970   0.01267  Uiso   1.00
O30    O     0.07580   0.28010   0.77960   0.01267  Uiso   1.00
O31    O     0.04910   0.83200   0.85120   0.01267  Uiso   1.00
O32    O     0.89060   0.92840   0.25890   0.01267  Uiso   1.00
