data_DARFIN_clean
_audit_creation_date              2014-07-02
_audit_creation_method            'Materials Studio'
_symmetry_space_group_name_H-M    'P1'
_symmetry_Int_Tables_number       1
_symmetry_cell_setting            triclinic
loop_
_symmetry_equiv_pos_as_xyz
  x,y,z
_cell_length_a                    10.4553
_cell_length_b                    14.4248
_cell_length_c                    23.4323
_cell_angle_alpha                 107.5010
_cell_angle_beta                  90.0000
_cell_angle_gamma                 90.0000
loop_
_atom_site_label
_atom_site_type_symbol
_atom_site_fract_x
_atom_site_fract_y
_atom_site_fract_z
_atom_site_U_iso_or_equiv
_atom_site_adp_type
_atom_site_occupancy
Er1    Er    0.92450   0.84855   0.77365   0.01267  Uiso   1.00
Er2    Er    0.92450   0.15145   0.72635   0.01267  Uiso   1.00
Er3    Er    0.07550   0.15145   0.22635   0.01267  Uiso   1.00
Er4    Er    0.07550   0.84855   0.27365   0.01267  Uiso   1.00
P1     P     0.87230   0.77154   0.37835   0.01267  Uiso   1.00
P2     P     0.87230   0.22846   0.12165   0.01267  Uiso   1.00
P3     P     0.12770   0.22846   0.62165   0.01267  Uiso   1.00
P4     P     0.12770   0.77154   0.87835   0.01267  Uiso   1.00
H1     H     0.90250   0.67790   0.47080   0.01267  Uiso   1.00
H2     H     0.90170   0.73220   0.57360   0.01267  Uiso   1.00
H3     H     0.87090   0.00660   0.57090   0.01267  Uiso   1.00
H4     H     0.86480   0.95390   0.46880   0.01267  Uiso   1.00
H5     H     0.62630   0.76910   0.43580   0.01267  Uiso   1.00
H6     H     0.41610   0.79780   0.41080   0.01267  Uiso   1.00
H7     H     0.53900   0.82640   0.25450   0.01267  Uiso   1.00
H8     H     0.74680   0.80300   0.27950   0.01267  Uiso   1.00
H9     H     0.10690   0.66420   0.35620   0.01267  Uiso   1.00
H10    H     0.15980   0.49910   0.32550   0.01267  Uiso   1.00
H11    H     0.78810   0.42840   0.31050   0.01267  Uiso   1.00
H12    H     0.73180   0.58850   0.34150   0.01267  Uiso   1.00
H13    H     0.90250   0.32210   0.02920   0.01267  Uiso   1.00
H14    H     0.90170   0.26780   0.92640   0.01267  Uiso   1.00
H15    H     0.87090   0.99340   0.92910   0.01267  Uiso   1.00
H16    H     0.86480   0.04610   0.03120   0.01267  Uiso   1.00
H17    H     0.62630   0.23090   0.06420   0.01267  Uiso   1.00
H18    H     0.41610   0.20220   0.08920   0.01267  Uiso   1.00
H19    H     0.53900   0.17360   0.24550   0.01267  Uiso   1.00
H20    H     0.74680   0.19700   0.22050   0.01267  Uiso   1.00
H21    H     0.10690   0.33580   0.14380   0.01267  Uiso   1.00
H22    H     0.15980   0.50090   0.17450   0.01267  Uiso   1.00
H23    H     0.78810   0.57160   0.18950   0.01267  Uiso   1.00
H24    H     0.73180   0.41150   0.15850   0.01267  Uiso   1.00
H25    H     0.09750   0.32210   0.52920   0.01267  Uiso   1.00
H26    H     0.09830   0.26780   0.42640   0.01267  Uiso   1.00
H27    H     0.12910   0.99340   0.42910   0.01267  Uiso   1.00
H28    H     0.13520   0.04610   0.53120   0.01267  Uiso   1.00
H29    H     0.37370   0.23090   0.56420   0.01267  Uiso   1.00
H30    H     0.58390   0.20220   0.58920   0.01267  Uiso   1.00
H31    H     0.46100   0.17360   0.74550   0.01267  Uiso   1.00
H32    H     0.25320   0.19700   0.72050   0.01267  Uiso   1.00
H33    H     0.89310   0.33580   0.64380   0.01267  Uiso   1.00
H34    H     0.84020   0.50090   0.67450   0.01267  Uiso   1.00
H35    H     0.21190   0.57160   0.68950   0.01267  Uiso   1.00
H36    H     0.26820   0.41150   0.65850   0.01267  Uiso   1.00
H37    H     0.09750   0.67790   0.97080   0.01267  Uiso   1.00
H38    H     0.09830   0.73220   0.07360   0.01267  Uiso   1.00
H39    H     0.12910   0.00660   0.07090   0.01267  Uiso   1.00
H40    H     0.13520   0.95390   0.96880   0.01267  Uiso   1.00
H41    H     0.37370   0.76910   0.93580   0.01267  Uiso   1.00
H42    H     0.58390   0.79780   0.91080   0.01267  Uiso   1.00
H43    H     0.46100   0.82640   0.75450   0.01267  Uiso   1.00
H44    H     0.25320   0.80300   0.77950   0.01267  Uiso   1.00
H45    H     0.89310   0.66420   0.85620   0.01267  Uiso   1.00
H46    H     0.84020   0.49910   0.82550   0.01267  Uiso   1.00
H47    H     0.21190   0.42840   0.81050   0.01267  Uiso   1.00
H48    H     0.26820   0.58850   0.84150   0.01267  Uiso   1.00
H49    H     0.24210   1.00000   0.75000   0.01267  Uiso   1.00
H50    H     0.75790   1.00000   0.25000   0.01267  Uiso   1.00
C1     C     0.87970   0.80990   0.45820   0.01267  Uiso   1.00
C2     C     0.89370   0.74390   0.49070   0.01267  Uiso   1.00
C3     C     0.89430   0.77680   0.55220   0.01267  Uiso   1.00
C4     C     0.88430   0.87390   0.58260   0.01267  Uiso   1.00
C5     C     0.87510   0.94050   0.55080   0.01267  Uiso   1.00
C6     C     0.87210   0.90880   0.48990   0.01267  Uiso   1.00
C7     C     0.88260   0.90870   0.64990   0.01267  Uiso   1.00
C8     C     0.70950   0.78430   0.35910   0.01267  Uiso   1.00
C9     C     0.60860   0.78110   0.39980   0.01267  Uiso   1.00
C10    C     0.48230   0.79650   0.38410   0.01267  Uiso   1.00
C11    C     0.45590   0.80990   0.32930   0.01267  Uiso   1.00
C12    C     0.55640   0.81430   0.29060   0.01267  Uiso   1.00
C13    C     0.68100   0.80080   0.30580   0.01267  Uiso   1.00
C14    C     0.32140   0.82630   0.31190   0.01267  Uiso   1.00
C15    C     0.91010   0.64370   0.35330   0.01267  Uiso   1.00
C16    C     0.04330   0.61700   0.34730   0.01267  Uiso   1.00
C17    C     0.07430   0.51780   0.32780   0.01267  Uiso   1.00
C18    C     0.98370   0.45000   0.31260   0.01267  Uiso   1.00
C19    C     0.85090   0.47630   0.31930   0.01267  Uiso   1.00
C20    C     0.81780   0.57140   0.33840   0.01267  Uiso   1.00
C21    C     0.01760   0.34560   0.28660   0.01267  Uiso   1.00
C22    C     0.87970   0.19010   0.04180   0.01267  Uiso   1.00
C23    C     0.89370   0.25610   0.00930   0.01267  Uiso   1.00
C24    C     0.89430   0.22320   0.94780   0.01267  Uiso   1.00
C25    C     0.88430   0.12610   0.91740   0.01267  Uiso   1.00
C26    C     0.87510   0.05950   0.94920   0.01267  Uiso   1.00
C27    C     0.87210   0.09120   0.01010   0.01267  Uiso   1.00
C28    C     0.88260   0.09130   0.85010   0.01267  Uiso   1.00
C29    C     0.70950   0.21570   0.14090   0.01267  Uiso   1.00
C30    C     0.60860   0.21890   0.10020   0.01267  Uiso   1.00
C31    C     0.48230   0.20350   0.11590   0.01267  Uiso   1.00
C32    C     0.45590   0.19010   0.17070   0.01267  Uiso   1.00
C33    C     0.55640   0.18570   0.20940   0.01267  Uiso   1.00
C34    C     0.68100   0.19920   0.19420   0.01267  Uiso   1.00
C35    C     0.32140   0.17370   0.18810   0.01267  Uiso   1.00
C36    C     0.91010   0.35630   0.14670   0.01267  Uiso   1.00
C37    C     0.04330   0.38300   0.15270   0.01267  Uiso   1.00
C38    C     0.07430   0.48220   0.17220   0.01267  Uiso   1.00
C39    C     0.98370   0.55000   0.18740   0.01267  Uiso   1.00
C40    C     0.85090   0.52370   0.18070   0.01267  Uiso   1.00
C41    C     0.81780   0.42860   0.16160   0.01267  Uiso   1.00
C42    C     0.01760   0.65440   0.21340   0.01267  Uiso   1.00
C43    C     0.12030   0.19010   0.54180   0.01267  Uiso   1.00
C44    C     0.10630   0.25610   0.50930   0.01267  Uiso   1.00
C45    C     0.10570   0.22320   0.44780   0.01267  Uiso   1.00
C46    C     0.11570   0.12610   0.41740   0.01267  Uiso   1.00
C47    C     0.12490   0.05950   0.44920   0.01267  Uiso   1.00
C48    C     0.12790   0.09120   0.51010   0.01267  Uiso   1.00
C49    C     0.11740   0.09130   0.35010   0.01267  Uiso   1.00
C50    C     0.29050   0.21570   0.64090   0.01267  Uiso   1.00
C51    C     0.39140   0.21890   0.60020   0.01267  Uiso   1.00
C52    C     0.51770   0.20350   0.61590   0.01267  Uiso   1.00
C53    C     0.54410   0.19010   0.67070   0.01267  Uiso   1.00
C54    C     0.44360   0.18570   0.70940   0.01267  Uiso   1.00
C55    C     0.31900   0.19920   0.69420   0.01267  Uiso   1.00
C56    C     0.67860   0.17370   0.68810   0.01267  Uiso   1.00
C57    C     0.08990   0.35630   0.64670   0.01267  Uiso   1.00
C58    C     0.95670   0.38300   0.65270   0.01267  Uiso   1.00
C59    C     0.92570   0.48220   0.67220   0.01267  Uiso   1.00
C60    C     0.01630   0.55000   0.68740   0.01267  Uiso   1.00
C61    C     0.14910   0.52370   0.68070   0.01267  Uiso   1.00
C62    C     0.18220   0.42860   0.66160   0.01267  Uiso   1.00
C63    C     0.98240   0.65440   0.71340   0.01267  Uiso   1.00
C64    C     0.12030   0.80990   0.95820   0.01267  Uiso   1.00
C65    C     0.10630   0.74390   0.99070   0.01267  Uiso   1.00
C66    C     0.10570   0.77680   0.05220   0.01267  Uiso   1.00
C67    C     0.11570   0.87390   0.08260   0.01267  Uiso   1.00
C68    C     0.12490   0.94050   0.05080   0.01267  Uiso   1.00
C69    C     0.12790   0.90880   0.98990   0.01267  Uiso   1.00
C70    C     0.11740   0.90870   0.14990   0.01267  Uiso   1.00
C71    C     0.29050   0.78430   0.85910   0.01267  Uiso   1.00
C72    C     0.39140   0.78110   0.89980   0.01267  Uiso   1.00
C73    C     0.51770   0.79650   0.88410   0.01267  Uiso   1.00
C74    C     0.54410   0.80990   0.82930   0.01267  Uiso   1.00
C75    C     0.44360   0.81430   0.79060   0.01267  Uiso   1.00
C76    C     0.31900   0.80080   0.80580   0.01267  Uiso   1.00
C77    C     0.67860   0.82630   0.81190   0.01267  Uiso   1.00
C78    C     0.08990   0.64370   0.85330   0.01267  Uiso   1.00
C79    C     0.95670   0.61700   0.84730   0.01267  Uiso   1.00
C80    C     0.92570   0.51780   0.82780   0.01267  Uiso   1.00
C81    C     0.01630   0.45000   0.81260   0.01267  Uiso   1.00
C82    C     0.14910   0.47630   0.81930   0.01267  Uiso   1.00
C83    C     0.18220   0.57140   0.83840   0.01267  Uiso   1.00
C84    C     0.98240   0.34560   0.78660   0.01267  Uiso   1.00
C85    C     0.15310   0.00000   0.75000   0.01267  Uiso   1.00
C86    C     0.84690   0.00000   0.25000   0.01267  Uiso   1.00
O1     O     0.88980   0.84520   0.67640   0.01267  Uiso   1.00
O2     O     0.87210   0.99890   0.67530   0.01267  Uiso   1.00
O3     O     0.22970   0.81720   0.34470   0.01267  Uiso   1.00
O4     O     0.30250   0.84970   0.26450   0.01267  Uiso   1.00
O5     O     0.13130   0.32180   0.26870   0.01267  Uiso   1.00
O6     O     0.93030   0.28050   0.27820   0.01267  Uiso   1.00
O7     O     0.95760   0.82850   0.35180   0.01267  Uiso   1.00
O8     O     0.10540   0.92920   0.75890   0.01267  Uiso   1.00
O9     O     0.88980   0.15480   0.82360   0.01267  Uiso   1.00
O10    O     0.87210   0.00110   0.82470   0.01267  Uiso   1.00
O11    O     0.22970   0.18280   0.15530   0.01267  Uiso   1.00
O12    O     0.30250   0.15030   0.23550   0.01267  Uiso   1.00
O13    O     0.13130   0.67820   0.23130   0.01267  Uiso   1.00
O14    O     0.93030   0.71950   0.22180   0.01267  Uiso   1.00
O15    O     0.95760   0.17150   0.14820   0.01267  Uiso   1.00
O16    O     0.10540   0.07080   0.74110   0.01267  Uiso   1.00
O17    O     0.11020   0.15480   0.32360   0.01267  Uiso   1.00
O18    O     0.12790   0.00110   0.32470   0.01267  Uiso   1.00
O19    O     0.77030   0.18280   0.65530   0.01267  Uiso   1.00
O20    O     0.69750   0.15030   0.73550   0.01267  Uiso   1.00
O21    O     0.86870   0.67820   0.73130   0.01267  Uiso   1.00
O22    O     0.06970   0.71950   0.72180   0.01267  Uiso   1.00
O23    O     0.04240   0.17150   0.64820   0.01267  Uiso   1.00
O24    O     0.89460   0.07080   0.24110   0.01267  Uiso   1.00
O25    O     0.11020   0.84520   0.17640   0.01267  Uiso   1.00
O26    O     0.12790   0.99890   0.17530   0.01267  Uiso   1.00
O27    O     0.77030   0.81720   0.84470   0.01267  Uiso   1.00
O28    O     0.69750   0.84970   0.76450   0.01267  Uiso   1.00
O29    O     0.86870   0.32180   0.76870   0.01267  Uiso   1.00
O30    O     0.06970   0.28050   0.77820   0.01267  Uiso   1.00
O31    O     0.04240   0.82850   0.85180   0.01267  Uiso   1.00
O32    O     0.89460   0.92920   0.25890   0.01267  Uiso   1.00
