data_DASTEY01_charged
_audit_creation_date              2014-07-02
_audit_creation_method            'Materials Studio'
_symmetry_space_group_name_H-M    'P1'
_symmetry_Int_Tables_number       1
_symmetry_cell_setting            triclinic
loop_
_symmetry_equiv_pos_as_xyz
  x,y,z
_cell_length_a                    12.7693
_cell_length_b                    12.7842
_cell_length_c                    14.7758
_cell_angle_alpha                 85.0190
_cell_angle_beta                  65.8700
_cell_angle_gamma                 89.6130
loop_
_atom_site_label
_atom_site_type_symbol
_atom_site_fract_x
_atom_site_fract_y
_atom_site_fract_z
_atom_site_U_iso_or_equiv
_atom_site_adp_type
_atom_site_occupancy
Zn1    Zn    0.65621   0.59728   0.13275   0.01267  Uiso   1.00
Zn2    Zn    0.21516   0.95127   0.55900   0.01267  Uiso   1.00
Zn3    Zn    0.34379   0.40272   0.86725   0.01267  Uiso   1.00
Zn4    Zn    0.78484   0.04873   0.44100   0.01267  Uiso   1.00
Zn5    Zn    0.50000   0.50000   0.00000   0.01267  Uiso   1.00
Zn6    Zn    0.00000   0.00000   0.50000   0.01267  Uiso   1.00
H1     H     0.78680   0.57850   0.72530   0.01267  Uiso   1.00
H2     H     0.92140   0.71670   0.59790   0.01267  Uiso   1.00
H3     H     0.05030   0.67890   0.36390   0.01267  Uiso   1.00
H4     H     0.01560   0.55280   0.25440   0.01267  Uiso   1.00
H5     H     0.16390   0.92210   0.20280   0.01267  Uiso   1.00
H6     H     0.27330   0.79020   0.08160   0.01267  Uiso   1.00
H7     H     0.36680   0.22970   0.27360   0.01267  Uiso   1.00
H8     H     0.41960   0.09290   0.38180   0.01267  Uiso   1.00
H9     H     0.21320   0.42150   0.27470   0.01267  Uiso   1.00
H10    H     0.07860   0.28330   0.40210   0.01267  Uiso   1.00
H11    H     0.94970   0.32110   0.63610   0.01267  Uiso   1.00
H12    H     0.98440   0.44720   0.74560   0.01267  Uiso   1.00
H13    H     0.83610   0.07790   0.79720   0.01267  Uiso   1.00
H14    H     0.72670   0.20980   0.91840   0.01267  Uiso   1.00
H15    H     0.63320   0.77030   0.72640   0.01267  Uiso   1.00
H16    H     0.58040   0.90710   0.61820   0.01267  Uiso   1.00
C1     C     0.73491   0.62003   0.93105   0.01267  Uiso   1.00
C2     C     0.80073   0.66815   0.82887   0.01267  Uiso   1.00
C3     C     0.81804   0.63797   0.73819   0.01267  Uiso   1.00
C4     C     0.89345   0.71549   0.66686   0.01267  Uiso   1.00
C5     C     0.91652   0.78714   0.71901   0.01267  Uiso   1.00
C6     C     0.99401   0.88151   0.68954   0.01267  Uiso   1.00
C7     C     0.88565   0.84675   0.41578   0.01267  Uiso   1.00
C8     C     0.90583   0.74995   0.36389   0.01267  Uiso   1.00
C9     C     0.99100   0.68030   0.34270   0.01267  Uiso   1.00
C10    C     0.97120   0.60943   0.28140   0.01267  Uiso   1.00
C11    C     0.87549   0.64064   0.27026   0.01267  Uiso   1.00
C12    C     0.81660   0.60246   0.21080   0.01267  Uiso   1.00
C13    C     0.23266   0.92884   0.36805   0.01267  Uiso   1.00
C14    C     0.26304   0.87381   0.27742   0.01267  Uiso   1.00
C15    C     0.22118   0.87889   0.20644   0.01267  Uiso   1.00
C16    C     0.28230   0.80492   0.13857   0.01267  Uiso   1.00
C17    C     0.35676   0.76001   0.17403   0.01267  Uiso   1.00
C18    C     0.44546   0.68053   0.13587   0.01267  Uiso   1.00
C19    C     0.54878   0.39410   0.17412   0.01267  Uiso   1.00
C20    C     0.52619   0.29550   0.23987   0.01267  Uiso   1.00
C21    C     0.43505   0.22692   0.28220   0.01267  Uiso   1.00
C22    C     0.46500   0.14990   0.34220   0.01267  Uiso   1.00
C23    C     0.57221   0.17583   0.33039   0.01267  Uiso   1.00
C24    C     0.65020   0.12656   0.37215   0.01267  Uiso   1.00
C25    C     0.26509   0.37997   0.06895   0.01267  Uiso   1.00
C26    C     0.19927   0.33185   0.17113   0.01267  Uiso   1.00
C27    C     0.18196   0.36203   0.26181   0.01267  Uiso   1.00
C28    C     0.10655   0.28451   0.33314   0.01267  Uiso   1.00
C29    C     0.08348   0.21286   0.28099   0.01267  Uiso   1.00
C30    C     0.00599   0.11849   0.31046   0.01267  Uiso   1.00
C31    C     0.11435   0.15325   0.58422   0.01267  Uiso   1.00
C32    C     0.09417   0.25005   0.63611   0.01267  Uiso   1.00
C33    C     0.00900   0.31970   0.65730   0.01267  Uiso   1.00
C34    C     0.02880   0.39057   0.71860   0.01267  Uiso   1.00
C35    C     0.12451   0.35936   0.72974   0.01267  Uiso   1.00
C36    C     0.18340   0.39754   0.78920   0.01267  Uiso   1.00
C37    C     0.76734   0.07116   0.63195   0.01267  Uiso   1.00
C38    C     0.73696   0.12619   0.72258   0.01267  Uiso   1.00
C39    C     0.77882   0.12111   0.79356   0.01267  Uiso   1.00
C40    C     0.71770   0.19508   0.86143   0.01267  Uiso   1.00
C41    C     0.64324   0.23999   0.82597   0.01267  Uiso   1.00
C42    C     0.55454   0.31947   0.86413   0.01267  Uiso   1.00
C43    C     0.45122   0.60590   0.82588   0.01267  Uiso   1.00
C44    C     0.47381   0.70450   0.76013   0.01267  Uiso   1.00
C45    C     0.56495   0.77308   0.71780   0.01267  Uiso   1.00
C46    C     0.53500   0.85010   0.65780   0.01267  Uiso   1.00
C47    C     0.42779   0.82417   0.66961   0.01267  Uiso   1.00
C48    C     0.34980   0.87344   0.62785   0.01267  Uiso   1.00
O1     O     0.74266   0.66660   0.00054   0.01267  Uiso   1.00
O2     O     0.67960   0.53604   0.94290   0.01267  Uiso   1.00
O3     O     0.86002   0.76029   0.81889   0.01267  Uiso   1.00
O4     O     0.00256   0.93356   0.75174   0.01267  Uiso   1.00
O5     O     0.05449   0.89824   0.59349   0.01267  Uiso   1.00
O6     O     0.79930   0.89919   0.41959   0.01267  Uiso   1.00
O7     O     0.95690   0.86756   0.44964   0.01267  Uiso   1.00
O8     O     0.83321   0.72722   0.32045   0.01267  Uiso   1.00
O9     O     0.85824   0.52970   0.15991   0.01267  Uiso   1.00
O10    O     0.72685   0.65104   0.21579   0.01267  Uiso   1.00
O11    O     0.28388   0.90323   0.42396   0.01267  Uiso   1.00
O12    O     0.15857   0.99704   0.38292   0.01267  Uiso   1.00
O13    O     0.34674   0.80096   0.25892   0.01267  Uiso   1.00
O14    O     0.50574   0.66093   0.18524   0.01267  Uiso   1.00
O15    O     0.45375   0.64227   0.05877   0.01267  Uiso   1.00
O16    O     0.63771   0.44619   0.16413   0.01267  Uiso   1.00
O17    O     0.48029   0.41760   0.13619   0.01267  Uiso   1.00
O18    O     0.61143   0.26531   0.26919   0.01267  Uiso   1.00
O19    O     0.74846   0.16190   0.34624   0.01267  Uiso   1.00
O20    O     0.61380   0.04762   0.43260   0.01267  Uiso   1.00
O21    O     0.25734   0.33340   0.99946   0.01267  Uiso   1.00
O22    O     0.32040   0.46396   0.05710   0.01267  Uiso   1.00
O23    O     0.13998   0.23971   0.18111   0.01267  Uiso   1.00
O24    O     0.99744   0.06644   0.24826   0.01267  Uiso   1.00
O25    O     0.94551   0.10176   0.40651   0.01267  Uiso   1.00
O26    O     0.20070   0.10081   0.58041   0.01267  Uiso   1.00
O27    O     0.04310   0.13244   0.55036   0.01267  Uiso   1.00
O28    O     0.16679   0.27278   0.67955   0.01267  Uiso   1.00
O29    O     0.14176   0.47030   0.84009   0.01267  Uiso   1.00
O30    O     0.27315   0.34896   0.78421   0.01267  Uiso   1.00
O31    O     0.71612   0.09677   0.57604   0.01267  Uiso   1.00
O32    O     0.84143   0.00296   0.61708   0.01267  Uiso   1.00
O33    O     0.65326   0.19904   0.74108   0.01267  Uiso   1.00
O34    O     0.49426   0.33907   0.81476   0.01267  Uiso   1.00
O35    O     0.54625   0.35773   0.94123   0.01267  Uiso   1.00
O36    O     0.36229   0.55381   0.83587   0.01267  Uiso   1.00
O37    O     0.51971   0.58240   0.86381   0.01267  Uiso   1.00
O38    O     0.38857   0.73469   0.73081   0.01267  Uiso   1.00
O39    O     0.25154   0.83810   0.65376   0.01267  Uiso   1.00
O40    O     0.38620   0.95238   0.56740   0.01267  Uiso   1.00
H17    H     0.98920   0.37150   0.10970   0.01267  Uiso   1.00
H18    H     0.91650   0.28200   0.19000   0.01267  Uiso   1.00
H19    H     0.99040   0.25640   0.08040   0.01267  Uiso   1.00
H20    H     0.91260   0.31730   0.94810   0.01267  Uiso   1.00
H21    H     0.80910   0.39290   0.98260   0.01267  Uiso   1.00
H22    H     0.92950   0.43030   0.97450   0.01267  Uiso   1.00
H23    H     0.80160   0.37720   0.13530   0.01267  Uiso   1.00
H24    H     0.80290   0.27060   0.10780   0.01267  Uiso   1.00
C49    C     0.94400   0.30810   0.12110   0.01267  Uiso   1.00
C50    C     0.87690   0.37120   0.99110   0.01267  Uiso   1.00
N1     N     0.84558   0.33023   0.09532   0.01267  Uiso   1.00
H25    H     0.58310   0.69140   0.40950   0.01267  Uiso   1.00
H26    H     0.48030   0.74540   0.48960   0.01267  Uiso   1.00
H27    H     0.47910   0.72940   0.38600   0.01267  Uiso   1.00
H28    H     0.52330   0.87080   0.27590   0.01267  Uiso   1.00
H29    H     0.61840   0.95300   0.26690   0.01267  Uiso   1.00
H30    H     0.65250   0.84010   0.23330   0.01267  Uiso   1.00
H31    H     0.54370   0.89130   0.42250   0.01267  Uiso   1.00
H32    H     0.65330   0.84070   0.38120   0.01267  Uiso   1.00
C51    C     0.52690   0.74450   0.41960   0.01267  Uiso   1.00
C52    C     0.59530   0.88000   0.28070   0.01267  Uiso   1.00
N2     N     0.58290   0.84340   0.38110   0.01267  Uiso   1.00
H33    H     0.01080   0.62850   0.89030   0.01267  Uiso   1.00
H34    H     0.08350   0.71800   0.81000   0.01267  Uiso   1.00
H35    H     0.00960   0.74360   0.91960   0.01267  Uiso   1.00
H36    H     0.08740   0.68270   0.05190   0.01267  Uiso   1.00
H37    H     0.19090   0.60710   0.01740   0.01267  Uiso   1.00
H38    H     0.07050   0.56970   0.02550   0.01267  Uiso   1.00
H39    H     0.19840   0.62280   0.86470   0.01267  Uiso   1.00
H40    H     0.19710   0.72940   0.89220   0.01267  Uiso   1.00
C53    C     0.05600   0.69190   0.87890   0.01267  Uiso   1.00
C54    C     0.12310   0.62880   0.00890   0.01267  Uiso   1.00
N3     N     0.15442   0.66977   0.90468   0.01267  Uiso   1.00
H41    H     0.41690   0.30860   0.59050   0.01267  Uiso   1.00
H42    H     0.51970   0.25460   0.51040   0.01267  Uiso   1.00
H43    H     0.52090   0.27060   0.61400   0.01267  Uiso   1.00
H44    H     0.47670   0.12920   0.72410   0.01267  Uiso   1.00
H45    H     0.38160   0.04700   0.73310   0.01267  Uiso   1.00
H46    H     0.34750   0.15990   0.76670   0.01267  Uiso   1.00
H47    H     0.45630   0.10870   0.57750   0.01267  Uiso   1.00
H48    H     0.34670   0.15930   0.61880   0.01267  Uiso   1.00
C55    C     0.47310   0.25550   0.58040   0.01267  Uiso   1.00
C56    C     0.40470   0.12000   0.71930   0.01267  Uiso   1.00
N4     N     0.41710   0.15660   0.61890   0.01267  Uiso   1.00
