data_DAVYEG_clean
_audit_creation_date              2014-07-02
_audit_creation_method            'Materials Studio'
_symmetry_space_group_name_H-M    'P1'
_symmetry_Int_Tables_number       1
_symmetry_cell_setting            triclinic
loop_
_symmetry_equiv_pos_as_xyz
  x,y,z
_cell_length_a                    7.2770
_cell_length_b                    14.1629
_cell_length_c                    24.6440
_cell_angle_alpha                 105.6810
_cell_angle_beta                  90.0000
_cell_angle_gamma                 104.8860
loop_
_atom_site_label
_atom_site_type_symbol
_atom_site_fract_x
_atom_site_fract_y
_atom_site_fract_z
_atom_site_U_iso_or_equiv
_atom_site_adp_type
_atom_site_occupancy
Co1    Co    0.81240   0.93238   0.98864   0.01267  Uiso   1.00
Co2    Co    0.88002   0.06762   0.51136   0.01267  Uiso   1.00
Co3    Co    0.18760   0.06762   0.01136   0.01267  Uiso   1.00
Co4    Co    0.11998   0.93238   0.48864   0.01267  Uiso   1.00
H1     H     0.50950   0.08520   0.13240   0.01267  Uiso   1.00
H2     H     0.29480   0.34060   0.34210   0.01267  Uiso   1.00
H3     H     0.43670   0.17880   0.21800   0.01267  Uiso   1.00
H4     H     0.67840   0.17780   0.32640   0.01267  Uiso   1.00
H5     H     0.68320   0.71260   0.89020   0.01267  Uiso   1.00
H6     H     0.37780   0.84020   0.00330   0.01267  Uiso   1.00
H7     H     0.12060   0.24380   0.39610   0.01267  Uiso   1.00
H8     H     0.98410   0.34160   0.25120   0.01267  Uiso   1.00
H9     H     0.04590   0.72280   0.97100   0.01267  Uiso   1.00
H10    H     0.02380   0.64340   0.91160   0.01267  Uiso   1.00
H11    H     0.35700   0.60180   0.87250   0.01267  Uiso   1.00
H12    H     0.79670   0.60160   0.00080   0.01267  Uiso   1.00
H13    H     0.05920   0.24280   0.16790   0.01267  Uiso   1.00
H14    H     0.28970   0.53400   0.96070   0.01267  Uiso   1.00
H15    H     0.51120   0.08520   0.38310   0.01267  Uiso   1.00
H16    H     0.42430   0.91480   0.36760   0.01267  Uiso   1.00
H17    H     0.95420   0.65940   0.15790   0.01267  Uiso   1.00
H18    H     0.25790   0.82120   0.28200   0.01267  Uiso   1.00
H19    H     0.50060   0.82220   0.17360   0.01267  Uiso   1.00
H20    H     0.97060   0.28740   0.60980   0.01267  Uiso   1.00
H21    H     0.53760   0.15980   0.49670   0.01267  Uiso   1.00
H22    H     0.87680   0.75620   0.10390   0.01267  Uiso   1.00
H23    H     0.64250   0.65840   0.24880   0.01267  Uiso   1.00
H24    H     0.32310   0.27720   0.52900   0.01267  Uiso   1.00
H25    H     0.38040   0.35660   0.58840   0.01267  Uiso   1.00
H26    H     0.75520   0.39820   0.62750   0.01267  Uiso   1.00
H27    H     0.19510   0.39840   0.49920   0.01267  Uiso   1.00
H28    H     0.81640   0.75720   0.33210   0.01267  Uiso   1.00
H29    H     0.75570   0.46600   0.53930   0.01267  Uiso   1.00
H30    H     0.42600   0.91480   0.11690   0.01267  Uiso   1.00
H31    H     0.49050   0.91480   0.86760   0.01267  Uiso   1.00
H32    H     0.70520   0.65940   0.65790   0.01267  Uiso   1.00
H33    H     0.56330   0.82120   0.78200   0.01267  Uiso   1.00
H34    H     0.32160   0.82220   0.67360   0.01267  Uiso   1.00
H35    H     0.31680   0.28740   0.10980   0.01267  Uiso   1.00
H36    H     0.62220   0.15980   0.99670   0.01267  Uiso   1.00
H37    H     0.87940   0.75620   0.60390   0.01267  Uiso   1.00
H38    H     0.01590   0.65840   0.74880   0.01267  Uiso   1.00
H39    H     0.95410   0.27720   0.02900   0.01267  Uiso   1.00
H40    H     0.97620   0.35660   0.08840   0.01267  Uiso   1.00
H41    H     0.64300   0.39820   0.12750   0.01267  Uiso   1.00
H42    H     0.20330   0.39840   0.99920   0.01267  Uiso   1.00
H43    H     0.94080   0.75720   0.83210   0.01267  Uiso   1.00
H44    H     0.71030   0.46600   0.03930   0.01267  Uiso   1.00
H45    H     0.48880   0.91480   0.61690   0.01267  Uiso   1.00
H46    H     0.57570   0.08520   0.63240   0.01267  Uiso   1.00
H47    H     0.04580   0.34060   0.84210   0.01267  Uiso   1.00
H48    H     0.74210   0.17880   0.71800   0.01267  Uiso   1.00
H49    H     0.49940   0.17780   0.82640   0.01267  Uiso   1.00
H50    H     0.02940   0.71260   0.39020   0.01267  Uiso   1.00
H51    H     0.46240   0.84020   0.50330   0.01267  Uiso   1.00
H52    H     0.12320   0.24380   0.89610   0.01267  Uiso   1.00
H53    H     0.35750   0.34160   0.75120   0.01267  Uiso   1.00
H54    H     0.67690   0.72280   0.47100   0.01267  Uiso   1.00
H55    H     0.61960   0.64340   0.41160   0.01267  Uiso   1.00
H56    H     0.24480   0.60180   0.37250   0.01267  Uiso   1.00
H57    H     0.80490   0.60160   0.50080   0.01267  Uiso   1.00
H58    H     0.18360   0.24280   0.66790   0.01267  Uiso   1.00
H59    H     0.24430   0.53400   0.46070   0.01267  Uiso   1.00
H60    H     0.57400   0.08520   0.88310   0.01267  Uiso   1.00
C1     C     0.84372   0.09244   0.08605   0.01267  Uiso   1.00
C2     C     0.60538   0.13576   0.15648   0.01267  Uiso   1.00
C3     C     0.80882   0.40444   0.33998   0.01267  Uiso   1.00
C4     C     0.63903   0.33706   0.29715   0.01267  Uiso   1.00
C5     C     0.33829   0.28918   0.35012   0.01267  Uiso   1.00
C6     C     0.56155   0.19290   0.20757   0.01267  Uiso   1.00
C7     C     0.56811   0.19242   0.34119   0.01267  Uiso   1.00
C8     C     0.70223   0.27126   0.24355   0.01267  Uiso   1.00
C9     C     0.50672   0.27064   0.32924   0.01267  Uiso   1.00
C10    C     0.79262   0.15404   0.14110   0.01267  Uiso   1.00
C11    C     0.58053   0.72446   0.91083   0.01267  Uiso   1.00
C12    C     0.41411   0.79482   0.97317   0.01267  Uiso   1.00
C13    C     0.05163   0.58186   0.97626   0.01267  Uiso   1.00
C14    C     0.23438   0.23156   0.38288   0.01267  Uiso   1.00
C15    C     0.88881   0.28962   0.22781   0.01267  Uiso   1.00
C16    C     0.54511   0.40922   0.27707   0.01267  Uiso   1.00
C17    C     0.09322   0.66764   0.94843   0.01267  Uiso   1.00
C18    C     0.40058   0.66256   0.90091   0.01267  Uiso   1.00
C19    C     0.87895   0.56090   0.00028   0.01267  Uiso   1.00
C20    C     0.93341   0.23082   0.17749   0.01267  Uiso   1.00
C21    C     0.17275   0.52050   0.97640   0.01267  Uiso   1.00
C22    C     0.29953   0.15586   0.39601   0.01267  Uiso   1.00
C23    C     0.19077   0.09774   0.43410   0.01267  Uiso   1.00
C24    C     0.46706   0.13612   0.37475   0.01267  Uiso   1.00
C25    C     0.75128   0.90756   0.41395   0.01267  Uiso   1.00
C26    C     0.46962   0.86424   0.34352   0.01267  Uiso   1.00
C27    C     0.40438   0.59556   0.16002   0.01267  Uiso   1.00
C28    C     0.30197   0.66294   0.20285   0.01267  Uiso   1.00
C29    C     0.04911   0.71082   0.14988   0.01267  Uiso   1.00
C30    C     0.36865   0.80710   0.29243   0.01267  Uiso   1.00
C31    C     0.37569   0.80758   0.15881   0.01267  Uiso   1.00
C32    C     0.43097   0.72874   0.25645   0.01267  Uiso   1.00
C33    C     0.23608   0.72936   0.17076   0.01267  Uiso   1.00
C34    C     0.63858   0.84596   0.35890   0.01267  Uiso   1.00
C35    C     0.85607   0.27554   0.58917   0.01267  Uiso   1.00
C36    C     0.61929   0.20518   0.52683   0.01267  Uiso   1.00
C37    C     0.46977   0.41814   0.52374   0.01267  Uiso   1.00
C38    C     0.00282   0.76844   0.11712   0.01267  Uiso   1.00
C39    C     0.59919   0.71038   0.27219   0.01267  Uiso   1.00
C40    C     0.13589   0.59078   0.22293   0.01267  Uiso   1.00
C41    C     0.42558   0.33236   0.55157   0.01267  Uiso   1.00
C42    C     0.73802   0.33744   0.59909   0.01267  Uiso   1.00
C43    C     0.31805   0.43910   0.49972   0.01267  Uiso   1.00
C44    C     0.70259   0.76918   0.32251   0.01267  Uiso   1.00
C45    C     0.65225   0.47950   0.52360   0.01267  Uiso   1.00
C46    C     0.14367   0.84414   0.10399   0.01267  Uiso   1.00
C47    C     0.09303   0.90226   0.06590   0.01267  Uiso   1.00
C48    C     0.33094   0.86388   0.12525   0.01267  Uiso   1.00
C49    C     0.15628   0.90756   0.91395   0.01267  Uiso   1.00
C50    C     0.39462   0.86424   0.84352   0.01267  Uiso   1.00
C51    C     0.19118   0.59556   0.66002   0.01267  Uiso   1.00
C52    C     0.36097   0.66294   0.70285   0.01267  Uiso   1.00
C53    C     0.66171   0.71082   0.64988   0.01267  Uiso   1.00
C54    C     0.43845   0.80710   0.79243   0.01267  Uiso   1.00
C55    C     0.43189   0.80758   0.65881   0.01267  Uiso   1.00
C56    C     0.29777   0.72874   0.75645   0.01267  Uiso   1.00
C57    C     0.49328   0.72936   0.67076   0.01267  Uiso   1.00
C58    C     0.20738   0.84596   0.85890   0.01267  Uiso   1.00
C59    C     0.41947   0.27554   0.08917   0.01267  Uiso   1.00
C60    C     0.58589   0.20518   0.02683   0.01267  Uiso   1.00
C61    C     0.94837   0.41814   0.02374   0.01267  Uiso   1.00
C62    C     0.76562   0.76844   0.61712   0.01267  Uiso   1.00
C63    C     0.11119   0.71038   0.77219   0.01267  Uiso   1.00
C64    C     0.45489   0.59078   0.72293   0.01267  Uiso   1.00
C65    C     0.90678   0.33236   0.05157   0.01267  Uiso   1.00
C66    C     0.59942   0.33744   0.09909   0.01267  Uiso   1.00
C67    C     0.12105   0.43910   0.99972   0.01267  Uiso   1.00
C68    C     0.06659   0.76918   0.82251   0.01267  Uiso   1.00
C69    C     0.82725   0.47950   0.02360   0.01267  Uiso   1.00
C70    C     0.70047   0.84414   0.60399   0.01267  Uiso   1.00
C71    C     0.80923   0.90226   0.56590   0.01267  Uiso   1.00
C72    C     0.53294   0.86388   0.62525   0.01267  Uiso   1.00
C73    C     0.24872   0.09244   0.58605   0.01267  Uiso   1.00
C74    C     0.53038   0.13576   0.65648   0.01267  Uiso   1.00
C75    C     0.59562   0.40444   0.83998   0.01267  Uiso   1.00
C76    C     0.69803   0.33706   0.79715   0.01267  Uiso   1.00
C77    C     0.95089   0.28918   0.85012   0.01267  Uiso   1.00
C78    C     0.63135   0.19290   0.70757   0.01267  Uiso   1.00
C79    C     0.62431   0.19242   0.84119   0.01267  Uiso   1.00
C80    C     0.56903   0.27126   0.74355   0.01267  Uiso   1.00
C81    C     0.76392   0.27064   0.82924   0.01267  Uiso   1.00
C82    C     0.36142   0.15404   0.64110   0.01267  Uiso   1.00
C83    C     0.14393   0.72446   0.41083   0.01267  Uiso   1.00
C84    C     0.38071   0.79482   0.47317   0.01267  Uiso   1.00
C85    C     0.53023   0.58186   0.47626   0.01267  Uiso   1.00
C86    C     0.99718   0.23156   0.88288   0.01267  Uiso   1.00
C87    C     0.40081   0.28962   0.72781   0.01267  Uiso   1.00
C88    C     0.86411   0.40922   0.77707   0.01267  Uiso   1.00
C89    C     0.57442   0.66764   0.44843   0.01267  Uiso   1.00
C90    C     0.26198   0.66256   0.40091   0.01267  Uiso   1.00
C91    C     0.68195   0.56090   0.50028   0.01267  Uiso   1.00
C92    C     0.29741   0.23082   0.67749   0.01267  Uiso   1.00
C93    C     0.34775   0.52050   0.47640   0.01267  Uiso   1.00
C94    C     0.85633   0.15586   0.89601   0.01267  Uiso   1.00
C95    C     0.90697   0.09774   0.93410   0.01267  Uiso   1.00
C96    C     0.66906   0.13612   0.87475   0.01267  Uiso   1.00
N1     N     0.58790   0.80780   0.95627   0.01267  Uiso   1.00
N2     N     0.29503   0.70766   0.94139   0.01267  Uiso   1.00
N3     N     0.78010   0.19220   0.54373   0.01267  Uiso   1.00
N4     N     0.58737   0.29234   0.55861   0.01267  Uiso   1.00
N5     N     0.41210   0.19220   0.04373   0.01267  Uiso   1.00
N6     N     0.70497   0.29234   0.05861   0.01267  Uiso   1.00
N7     N     0.21990   0.80780   0.45627   0.01267  Uiso   1.00
N8     N     0.41263   0.70766   0.44139   0.01267  Uiso   1.00
O1     O     0.05813   0.12958   0.45856   0.01267  Uiso   1.00
O2     O     0.71657   0.01546   0.05767   0.01267  Uiso   1.00
O3     O     0.24562   0.02316   0.44039   0.01267  Uiso   1.00
O4     O     0.01043   0.12230   0.07190   0.01267  Uiso   1.00
O5     O     0.92855   0.87042   0.04144   0.01267  Uiso   1.00
O6     O     0.70111   0.98454   0.44233   0.01267  Uiso   1.00
O7     O     0.22246   0.97684   0.05961   0.01267  Uiso   1.00
O8     O     0.88813   0.87770   0.42810   0.01267  Uiso   1.00
O9     O     0.94187   0.87042   0.54144   0.01267  Uiso   1.00
O10    O     0.28343   0.98454   0.94233   0.01267  Uiso   1.00
O11    O     0.75438   0.97684   0.55961   0.01267  Uiso   1.00
O12    O     0.98957   0.87770   0.92810   0.01267  Uiso   1.00
O13    O     0.07145   0.12958   0.95856   0.01267  Uiso   1.00
O14    O     0.29889   0.01546   0.55767   0.01267  Uiso   1.00
O15    O     0.77754   0.02316   0.94039   0.01267  Uiso   1.00
O16    O     0.11187   0.12230   0.57190   0.01267  Uiso   1.00
F1     F     0.92443   0.35102   0.35089   0.01267  Uiso   1.00
F2     F     0.37811   0.35866   0.24742   0.01267  Uiso   1.00
F3     F     0.91818   0.48090   0.32207   0.01267  Uiso   1.00
F4     F     0.74924   0.44804   0.38941   0.01267  Uiso   1.00
F5     F     0.65570   0.45578   0.24361   0.01267  Uiso   1.00
F6     F     0.50997   0.48292   0.31979   0.01267  Uiso   1.00
F7     F     0.57341   0.64898   0.14911   0.01267  Uiso   1.00
F8     F     0.01945   0.64134   0.25258   0.01267  Uiso   1.00
F9     F     0.43728   0.51910   0.17793   0.01267  Uiso   1.00
F10    F     0.30120   0.55196   0.11059   0.01267  Uiso   1.00
F11    F     0.19992   0.54422   0.25639   0.01267  Uiso   1.00
F12    F     0.02705   0.51708   0.18021   0.01267  Uiso   1.00
F13    F     0.07557   0.64898   0.64911   0.01267  Uiso   1.00
F14    F     0.62189   0.64134   0.75258   0.01267  Uiso   1.00
F15    F     0.08182   0.51910   0.67793   0.01267  Uiso   1.00
F16    F     0.25076   0.55196   0.61059   0.01267  Uiso   1.00
F17    F     0.34430   0.54422   0.75639   0.01267  Uiso   1.00
F18    F     0.49003   0.51708   0.68021   0.01267  Uiso   1.00
F19    F     0.42659   0.35102   0.85089   0.01267  Uiso   1.00
F20    F     0.98055   0.35866   0.74742   0.01267  Uiso   1.00
F21    F     0.56272   0.48090   0.82207   0.01267  Uiso   1.00
F22    F     0.69880   0.44804   0.88941   0.01267  Uiso   1.00
F23    F     0.80008   0.45578   0.74361   0.01267  Uiso   1.00
F24    F     0.97295   0.48292   0.81979   0.01267  Uiso   1.00
