data_DAXGUG_clean
_audit_creation_date              2014-07-02
_audit_creation_method            'Materials Studio'
_symmetry_space_group_name_H-M    'P1'
_symmetry_Int_Tables_number       1
_symmetry_cell_setting            triclinic
loop_
_symmetry_equiv_pos_as_xyz
  x,y,z
_cell_length_a                    7.5450
_cell_length_b                    9.6850
_cell_length_c                    13.9430
_cell_angle_alpha                 81.6780
_cell_angle_beta                  76.8770
_cell_angle_gamma                 80.7060
loop_
_atom_site_label
_atom_site_type_symbol
_atom_site_fract_x
_atom_site_fract_y
_atom_site_fract_z
_atom_site_U_iso_or_equiv
_atom_site_adp_type
_atom_site_occupancy
Zn1    Zn    0.77241   0.40863   0.49591   0.01267  Uiso   1.00
Zn2    Zn    0.22759   0.59137   0.50409   0.01267  Uiso   1.00
H1     H     0.11520   0.73200   0.21570   0.01267  Uiso   1.00
H2     H     0.49440   0.75700   0.21400   0.01267  Uiso   1.00
H3     H     0.03540   0.57090   0.82310   0.01267  Uiso   1.00
H4     H     0.01300   0.80380   0.06840   0.01267  Uiso   1.00
H5     H     0.84310   0.97010   0.72900   0.01267  Uiso   1.00
H6     H     0.88430   0.60580   0.98510   0.01267  Uiso   1.00
H7     H     0.69520   0.00690   0.89150   0.01267  Uiso   1.00
H8     H     0.88480   0.26800   0.78430   0.01267  Uiso   1.00
H9     H     0.50560   0.24300   0.78600   0.01267  Uiso   1.00
H10    H     0.96460   0.42910   0.17690   0.01267  Uiso   1.00
H11    H     0.98700   0.19620   0.93160   0.01267  Uiso   1.00
H12    H     0.15690   0.02990   0.27100   0.01267  Uiso   1.00
H13    H     0.11570   0.39420   0.01490   0.01267  Uiso   1.00
H14    H     0.30480   0.99310   0.10850   0.01267  Uiso   1.00
C1     C     0.77610   0.80920   0.95196   0.01267  Uiso   1.00
C2     C     0.53060   0.70380   0.39564   0.01267  Uiso   1.00
C3     C     0.93780   0.65960   0.39701   0.01267  Uiso   1.00
C4     C     0.67940   0.71820   0.30371   0.01267  Uiso   1.00
C5     C     0.04350   0.74390   0.65580   0.01267  Uiso   1.00
C6     C     0.86650   0.70670   0.30445   0.01267  Uiso   1.00
C7     C     0.98820   0.73860   0.21595   0.01267  Uiso   1.00
C8     C     0.95360   0.76700   0.76062   0.01267  Uiso   1.00
C9     C     0.62040   0.75410   0.21498   0.01267  Uiso   1.00
C10    C     0.96560   0.65930   0.83690   0.01267  Uiso   1.00
C11    C     0.74430   0.78550   0.12837   0.01267  Uiso   1.00
C12    C     0.92850   0.77980   0.12804   0.01267  Uiso   1.00
C13    C     0.85190   0.89630   0.78125   0.01267  Uiso   1.00
C14    C     0.87660   0.67970   0.93280   0.01267  Uiso   1.00
C15    C     0.76350   0.91830   0.87724   0.01267  Uiso   1.00
C16    C     0.22390   0.19080   0.04804   0.01267  Uiso   1.00
C17    C     0.46940   0.29620   0.60436   0.01267  Uiso   1.00
C18    C     0.06220   0.34040   0.60299   0.01267  Uiso   1.00
C19    C     0.32060   0.28180   0.69629   0.01267  Uiso   1.00
C20    C     0.95650   0.25610   0.34420   0.01267  Uiso   1.00
C21    C     0.13350   0.29330   0.69555   0.01267  Uiso   1.00
C22    C     0.01180   0.26140   0.78405   0.01267  Uiso   1.00
C23    C     0.04640   0.23300   0.23938   0.01267  Uiso   1.00
C24    C     0.37960   0.24590   0.78502   0.01267  Uiso   1.00
C25    C     0.03440   0.34070   0.16310   0.01267  Uiso   1.00
C26    C     0.25570   0.21450   0.87163   0.01267  Uiso   1.00
C27    C     0.07150   0.22020   0.87196   0.01267  Uiso   1.00
C28    C     0.14810   0.10370   0.21875   0.01267  Uiso   1.00
C29    C     0.12340   0.32030   0.06720   0.01267  Uiso   1.00
C30    C     0.23650   0.08170   0.12276   0.01267  Uiso   1.00
O1     O     0.83340   0.60795   0.47307   0.01267  Uiso   1.00
O2     O     0.46570   0.80724   0.44196   0.01267  Uiso   1.00
O3     O     0.01890   0.83848   0.58783   0.01267  Uiso   1.00
O4     O     0.46820   0.58701   0.41482   0.01267  Uiso   1.00
O5     O     0.14240   0.62660   0.64172   0.01267  Uiso   1.00
O6     O     0.10200   0.67329   0.39353   0.01267  Uiso   1.00
O7     O     0.67120   0.83280   0.04514   0.01267  Uiso   1.00
O8     O     0.16660   0.39205   0.52693   0.01267  Uiso   1.00
O9     O     0.53430   0.19276   0.55804   0.01267  Uiso   1.00
O10    O     0.98110   0.16152   0.41217   0.01267  Uiso   1.00
O11    O     0.53180   0.41299   0.58518   0.01267  Uiso   1.00
O12    O     0.85760   0.37340   0.35828   0.01267  Uiso   1.00
O13    O     0.89800   0.32671   0.60647   0.01267  Uiso   1.00
O14    O     0.32880   0.16720   0.95486   0.01267  Uiso   1.00
