data_DEBNUU_clean
_audit_creation_date              2014-07-02
_audit_creation_method            'Materials Studio'
_symmetry_space_group_name_H-M    'P1'
_symmetry_Int_Tables_number       1
_symmetry_cell_setting            triclinic
loop_
_symmetry_equiv_pos_as_xyz
  x,y,z
_cell_length_a                    7.8951
_cell_length_b                    10.5407
_cell_length_c                    10.3271
_cell_angle_alpha                 109.8190
_cell_angle_beta                  90.0000
_cell_angle_gamma                 90.0000
loop_
_atom_site_label
_atom_site_type_symbol
_atom_site_fract_x
_atom_site_fract_y
_atom_site_fract_z
_atom_site_U_iso_or_equiv
_atom_site_adp_type
_atom_site_occupancy
Al1    Al    0.57020   0.68060   0.29070   0.01267  Uiso   1.00
Al2    Al    0.57020   0.31940   0.20930   0.01267  Uiso   1.00
Al3    Al    0.42980   0.31940   0.70930   0.01267  Uiso   1.00
Al4    Al    0.42980   0.68060   0.79070   0.01267  Uiso   1.00
Al5    Al    0.50000   0.00000   0.00000   0.01267  Uiso   1.00
Al6    Al    0.50000   0.00000   0.50000   0.01267  Uiso   1.00
P1     P     0.69150   0.75370   0.03481   0.01267  Uiso   1.00
P2     P     0.69150   0.24630   0.46519   0.01267  Uiso   1.00
P3     P     0.30850   0.24630   0.96519   0.01267  Uiso   1.00
P4     P     0.30850   0.75370   0.53481   0.01267  Uiso   1.00
C1     C     0.89740   0.76430   0.96220   0.01267  Uiso   1.00
C2     C     0.01730   0.84100   0.07230   0.01267  Uiso   1.00
C3     C     0.19130   0.84190   0.01320   0.01267  Uiso   1.00
C4     C     0.89740   0.23570   0.53780   0.01267  Uiso   1.00
C5     C     0.01730   0.15900   0.42770   0.01267  Uiso   1.00
C6     C     0.19130   0.15810   0.48680   0.01267  Uiso   1.00
C7     C     0.10260   0.23570   0.03780   0.01267  Uiso   1.00
C8     C     0.98270   0.15900   0.92770   0.01267  Uiso   1.00
C9     C     0.80870   0.15810   0.98680   0.01267  Uiso   1.00
C10    C     0.10260   0.76430   0.46220   0.01267  Uiso   1.00
C11    C     0.98270   0.84100   0.57230   0.01267  Uiso   1.00
C12    C     0.80870   0.84190   0.51320   0.01267  Uiso   1.00
O1     O     0.60960   0.89380   0.08720   0.01267  Uiso   1.00
O2     O     0.71530   0.69740   0.15400   0.01267  Uiso   1.00
O3     O     0.58310   0.65330   0.91910   0.01267  Uiso   1.00
O4     O     0.25100   0.73640   0.93120   0.01267  Uiso   1.00
O5     O     0.27420   0.94760   0.04920   0.01267  Uiso   1.00
O6     O     0.50320   0.86240   0.83330   0.01267  Uiso   1.00
O7     O     0.60960   0.10620   0.41280   0.01267  Uiso   1.00
O8     O     0.71530   0.30260   0.34600   0.01267  Uiso   1.00
O9     O     0.58310   0.34670   0.58090   0.01267  Uiso   1.00
O10    O     0.25100   0.26360   0.56880   0.01267  Uiso   1.00
O11    O     0.27420   0.05240   0.45080   0.01267  Uiso   1.00
O12    O     0.50320   0.13760   0.66670   0.01267  Uiso   1.00
O13    O     0.39040   0.10620   0.91280   0.01267  Uiso   1.00
O14    O     0.28470   0.30260   0.84600   0.01267  Uiso   1.00
O15    O     0.41690   0.34670   0.08090   0.01267  Uiso   1.00
O16    O     0.74900   0.26360   0.06880   0.01267  Uiso   1.00
O17    O     0.72580   0.05240   0.95080   0.01267  Uiso   1.00
O18    O     0.49680   0.13760   0.16670   0.01267  Uiso   1.00
O19    O     0.39040   0.89380   0.58720   0.01267  Uiso   1.00
O20    O     0.28470   0.69740   0.65400   0.01267  Uiso   1.00
O21    O     0.41690   0.65330   0.41910   0.01267  Uiso   1.00
O22    O     0.74900   0.73640   0.43120   0.01267  Uiso   1.00
O23    O     0.72580   0.94760   0.54920   0.01267  Uiso   1.00
O24    O     0.49680   0.86240   0.33330   0.01267  Uiso   1.00
O25    O     0.64740   0.50000   0.25000   0.01267  Uiso   1.00
O26    O     0.35260   0.50000   0.75000   0.01267  Uiso   1.00
