data_DEHLIN_clean
_audit_creation_date              2014-07-02
_audit_creation_method            'Materials Studio'
_symmetry_space_group_name_H-M    'P1'
_symmetry_Int_Tables_number       1
_symmetry_cell_setting            triclinic
loop_
_symmetry_equiv_pos_as_xyz
  x,y,z
_cell_length_a                    11.4627
_cell_length_b                    13.3436
_cell_length_c                    41.8890
_cell_angle_alpha                 95.7746
_cell_angle_beta                  90.0000
_cell_angle_gamma                 115.4370
loop_
_atom_site_label
_atom_site_type_symbol
_atom_site_fract_x
_atom_site_fract_y
_atom_site_fract_z
_atom_site_U_iso_or_equiv
_atom_site_adp_type
_atom_site_occupancy
Cd1    Cd    0.97419   0.41018   0.35485   0.01267  Uiso   1.00
Cd2    Cd    0.56401   0.58982   0.14515   0.01267  Uiso   1.00
Cd3    Cd    0.02581   0.58982   0.64515   0.01267  Uiso   1.00
Cd4    Cd    0.43599   0.41018   0.85485   0.01267  Uiso   1.00
Cd5    Cd    0.17461  -0.00000   0.25000   0.01267  Uiso   1.00
Cd6    Cd    0.82539   0.00000   0.75000   0.01267  Uiso   1.00
H1     H     0.05190   0.09900   0.15130   0.01267  Uiso   1.00
H2     H     0.96780   0.06220   0.09780   0.01267  Uiso   1.00
H3     H     0.83620   0.72900   0.10320   0.01267  Uiso   1.00
H4     H     0.92490   0.76760   0.15560   0.01267  Uiso   1.00
H5     H     0.85700   0.01140   0.04960   0.01267  Uiso   1.00
H6     H     0.98300   0.99160   0.04630   0.01267  Uiso   1.00
H7     H     0.69170   0.99080   0.03190   0.01267  Uiso   1.00
H8     H     0.72570   0.06100   0.00260   0.01267  Uiso   1.00
H9     H     0.59410   0.95400   0.00210   0.01267  Uiso   1.00
H10    H     0.56380   0.91020   0.95520   0.01267  Uiso   1.00
H11    H     0.56340   0.82240   0.92680   0.01267  Uiso   1.00
H12    H     0.77650   0.80900   0.89760   0.01267  Uiso   1.00
H13    H     0.77820   0.69740   0.90580   0.01267  Uiso   1.00
H14    H     0.64900   0.71100   0.90700   0.01267  Uiso   1.00
H15    H     0.85120   0.63940   0.93510   0.01267  Uiso   1.00
H16    H     0.92490   0.65340   0.96830   0.01267  Uiso   1.00
H17    H     0.05070   0.78600   0.00230   0.01267  Uiso   1.00
H18    H     0.04930   0.87340   0.03010   0.01267  Uiso   1.00
H19    H     0.95370   0.74700   0.02980   0.01267  Uiso   1.00
H20    H     0.78360   0.07380   0.87380   0.01267  Uiso   1.00
H21    H     0.71190   0.18620   0.84450   0.01267  Uiso   1.00
H22    H     0.40710   0.09980   0.90450   0.01267  Uiso   1.00
H23    H     0.48350   0.99420   0.93090   0.01267  Uiso   1.00
H24    H     0.23560   0.85180   0.90760   0.01267  Uiso   1.00
H25    H     0.35370   0.76700   0.88020   0.01267  Uiso   1.00
H26    H     0.12530   0.47280   0.91290   0.01267  Uiso   1.00
H27    H     0.99450   0.55560   0.93810   0.01267  Uiso   1.00
H28    H     0.72490   0.46640   0.36550   0.01267  Uiso   1.00
H29    H     0.88560   0.73620   0.31630   0.01267  Uiso   1.00
H30    H     0.04050   0.65200   0.32250   0.01267  Uiso   1.00
H31    H     0.66720   0.69700   0.35770   0.01267  Uiso   1.00
H32    H     0.58840   0.56980   0.36140   0.01267  Uiso   1.00
H33    H     0.68040   0.82180   0.33880   0.01267  Uiso   1.00
H34    H     0.62960   0.87100   0.31240   0.01267  Uiso   1.00
H35    H     0.74790   0.84340   0.30600   0.01267  Uiso   1.00
H36    H     0.53630   0.37440   0.31230   0.01267  Uiso   1.00
H37    H     0.38590   0.33220   0.31310   0.01267  Uiso   1.00
H38    H     0.47560   0.41100   0.34220   0.01267  Uiso   1.00
H39    H     0.28900   0.62460   0.23500   0.01267  Uiso   1.00
H40    H     0.23120   0.49500   0.23560   0.01267  Uiso   1.00
H41    H     0.34650   0.55460   0.21380   0.01267  Uiso   1.00
H42    H     0.58340   0.84680   0.26410   0.01267  Uiso   1.00
H43    H     0.49510   0.76600   0.23490   0.01267  Uiso   1.00
H44    H     0.36710   0.88000   0.22940   0.01267  Uiso   1.00
H45    H     0.19580   0.85280   0.31320   0.01267  Uiso   1.00
H46    H     0.34870   0.76720   0.31550   0.01267  Uiso   1.00
H47    H     0.33650   0.31340   0.26610   0.01267  Uiso   1.00
H48    H     0.29700   0.36480   0.23810   0.01267  Uiso   1.00
H49    H     0.21820   0.47300   0.31120   0.01267  Uiso   1.00
H50    H     0.88990   0.20220   0.28970   0.01267  Uiso   1.00
H51    H     0.05300   0.18820   0.25170   0.01267  Uiso   1.00
H52    H     0.95290   0.90100   0.34870   0.01267  Uiso   1.00
H53    H     0.90560   0.93780   0.40220   0.01267  Uiso   1.00
H54    H     0.10720   0.27100   0.39680   0.01267  Uiso   1.00
H55    H     0.15730   0.23240   0.34440   0.01267  Uiso   1.00
H56    H     0.84560   0.98860   0.45040   0.01267  Uiso   1.00
H57    H     0.99140   0.00840   0.45370   0.01267  Uiso   1.00
H58    H     0.70090   0.00920   0.46810   0.01267  Uiso   1.00
H59    H     0.66470   0.93900   0.49740   0.01267  Uiso   1.00
H60    H     0.64010   0.04600   0.49790   0.01267  Uiso   1.00
H61    H     0.65360   0.08980   0.54480   0.01267  Uiso   1.00
H62    H     0.74100   0.17760   0.57320   0.01267  Uiso   1.00
H63    H     0.96750   0.19100   0.60240   0.01267  Uiso   1.00
H64    H     0.08080   0.30260   0.59420   0.01267  Uiso   1.00
H65    H     0.93800   0.28900   0.59300   0.01267  Uiso   1.00
H66    H     0.21180   0.36060   0.56490   0.01267  Uiso   1.00
H67    H     0.27150   0.34660   0.53170   0.01267  Uiso   1.00
H68    H     0.26470   0.21400   0.49770   0.01267  Uiso   1.00
H69    H     0.17590   0.12660   0.46990   0.01267  Uiso   1.00
H70    H     0.20670   0.25300   0.47020   0.01267  Uiso   1.00
H71    H     0.70980   0.92620   0.62620   0.01267  Uiso   1.00
H72    H     0.52570   0.81380   0.65550   0.01267  Uiso   1.00
H73    H     0.30730   0.90020   0.59550   0.01267  Uiso   1.00
H74    H     0.48930   0.00580   0.56910   0.01267  Uiso   1.00
H75    H     0.38380   0.14820   0.59240   0.01267  Uiso   1.00
H76    H     0.58670   0.23300   0.61980   0.01267  Uiso   1.00
H77    H     0.65250   0.52720   0.58710   0.01267  Uiso   1.00
H78    H     0.43890   0.44440   0.56190   0.01267  Uiso   1.00
H79    H     0.25850   0.53360   0.13450   0.01267  Uiso   1.00
H80    H     0.14940   0.26380   0.18370   0.01267  Uiso   1.00
H81    H     0.38850   0.34800   0.17750   0.01267  Uiso   1.00
H82    H     0.97020   0.30300   0.14230   0.01267  Uiso   1.00
H83    H     0.01860   0.43020   0.13860   0.01267  Uiso   1.00
H84    H     0.85860   0.17820   0.16120   0.01267  Uiso   1.00
H85    H     0.75860   0.12900   0.18760   0.01267  Uiso   1.00
H86    H     0.90450   0.15660   0.19400   0.01267  Uiso   1.00
H87    H     0.16190   0.62560   0.18770   0.01267  Uiso   1.00
H88    H     0.05370   0.66780   0.18690   0.01267  Uiso   1.00
H89    H     0.06460   0.58900   0.15780   0.01267  Uiso   1.00
H90    H     0.66440   0.37540   0.26500   0.01267  Uiso   1.00
H91    H     0.73620   0.50500   0.26440   0.01267  Uiso   1.00
H92    H     0.79190   0.44540   0.28620   0.01267  Uiso   1.00
H93    H     0.73660   0.15320   0.23590   0.01267  Uiso   1.00
H94    H     0.72910   0.23400   0.26510   0.01267  Uiso   1.00
H95    H     0.48710   0.12000   0.27060   0.01267  Uiso   1.00
H96    H     0.34300   0.14720   0.18680   0.01267  Uiso   1.00
H97    H     0.58150   0.23280   0.18450   0.01267  Uiso   1.00
H98    H     0.02310   0.68660   0.23390   0.01267  Uiso   1.00
H99    H     0.93220   0.63520   0.26190   0.01267  Uiso   1.00
H100   H     0.74520   0.52700   0.18880   0.01267  Uiso   1.00
H101   H     0.68770   0.79780   0.21030   0.01267  Uiso   1.00
H102   H     0.86480   0.81180   0.24830   0.01267  Uiso   1.00
H103   H     0.94810   0.90100   0.84870   0.01267  Uiso   1.00
H104   H     0.03220   0.93780   0.90220   0.01267  Uiso   1.00
H105   H     0.16380   0.27100   0.89680   0.01267  Uiso   1.00
H106   H     0.07510   0.23240   0.84440   0.01267  Uiso   1.00
H107   H     0.14300   0.98860   0.95040   0.01267  Uiso   1.00
H108   H     0.01700   0.00840   0.95370   0.01267  Uiso   1.00
H109   H     0.30830   0.00920   0.96810   0.01267  Uiso   1.00
H110   H     0.27430   0.93900   0.99740   0.01267  Uiso   1.00
H111   H     0.40590   0.04600   0.99790   0.01267  Uiso   1.00
H112   H     0.43620   0.08980   0.04480   0.01267  Uiso   1.00
H113   H     0.43660   0.17760   0.07320   0.01267  Uiso   1.00
H114   H     0.22350   0.19100   0.10240   0.01267  Uiso   1.00
H115   H     0.22180   0.30260   0.09420   0.01267  Uiso   1.00
H116   H     0.35100   0.28900   0.09300   0.01267  Uiso   1.00
H117   H     0.14880   0.36060   0.06490   0.01267  Uiso   1.00
H118   H     0.07510   0.34660   0.03170   0.01267  Uiso   1.00
H119   H     0.94930   0.21400   0.99770   0.01267  Uiso   1.00
H120   H     0.95070   0.12660   0.96990   0.01267  Uiso   1.00
H121   H     0.04630   0.25300   0.97020   0.01267  Uiso   1.00
H122   H     0.21640   0.92620   0.12620   0.01267  Uiso   1.00
H123   H     0.28810   0.81380   0.15550   0.01267  Uiso   1.00
H124   H     0.59290   0.90020   0.09550   0.01267  Uiso   1.00
H125   H     0.51650   0.00580   0.06910   0.01267  Uiso   1.00
H126   H     0.76440   0.14820   0.09240   0.01267  Uiso   1.00
H127   H     0.64630   0.23300   0.11980   0.01267  Uiso   1.00
H128   H     0.87470   0.52720   0.08710   0.01267  Uiso   1.00
H129   H     0.00550   0.44440   0.06190   0.01267  Uiso   1.00
H130   H     0.27510   0.53360   0.63450   0.01267  Uiso   1.00
H131   H     0.11440   0.26380   0.68370   0.01267  Uiso   1.00
H132   H     0.95950   0.34800   0.67750   0.01267  Uiso   1.00
H133   H     0.33280   0.30300   0.64230   0.01267  Uiso   1.00
H134   H     0.41160   0.43020   0.63860   0.01267  Uiso   1.00
H135   H     0.31960   0.17820   0.66120   0.01267  Uiso   1.00
H136   H     0.37040   0.12900   0.68760   0.01267  Uiso   1.00
H137   H     0.25210   0.15660   0.69400   0.01267  Uiso   1.00
H138   H     0.46370   0.62560   0.68770   0.01267  Uiso   1.00
H139   H     0.61410   0.66780   0.68690   0.01267  Uiso   1.00
H140   H     0.52440   0.58900   0.65780   0.01267  Uiso   1.00
H141   H     0.71100   0.37540   0.76500   0.01267  Uiso   1.00
H142   H     0.76880   0.50500   0.76440   0.01267  Uiso   1.00
H143   H     0.65350   0.44540   0.78620   0.01267  Uiso   1.00
H144   H     0.41660   0.15320   0.73590   0.01267  Uiso   1.00
H145   H     0.50490   0.23400   0.76510   0.01267  Uiso   1.00
H146   H     0.63290   0.12000   0.77060   0.01267  Uiso   1.00
H147   H     0.80420   0.14720   0.68680   0.01267  Uiso   1.00
H148   H     0.65130   0.23280   0.68450   0.01267  Uiso   1.00
H149   H     0.66350   0.68660   0.73390   0.01267  Uiso   1.00
H150   H     0.70300   0.63520   0.76190   0.01267  Uiso   1.00
H151   H     0.78180   0.52700   0.68880   0.01267  Uiso   1.00
H152   H     0.11010   0.79780   0.71030   0.01267  Uiso   1.00
H153   H     0.94700   0.81180   0.74830   0.01267  Uiso   1.00
H154   H     0.04710   0.09900   0.65130   0.01267  Uiso   1.00
H155   H     0.09440   0.06220   0.59780   0.01267  Uiso   1.00
H156   H     0.89280   0.72900   0.60320   0.01267  Uiso   1.00
H157   H     0.84270   0.76760   0.65560   0.01267  Uiso   1.00
H158   H     0.15440   0.01140   0.54960   0.01267  Uiso   1.00
H159   H     0.00860   0.99160   0.54630   0.01267  Uiso   1.00
H160   H     0.29910   0.99080   0.53190   0.01267  Uiso   1.00
H161   H     0.33530   0.06100   0.50260   0.01267  Uiso   1.00
H162   H     0.35990   0.95400   0.50210   0.01267  Uiso   1.00
H163   H     0.34640   0.91020   0.45520   0.01267  Uiso   1.00
H164   H     0.25900   0.82240   0.42680   0.01267  Uiso   1.00
H165   H     0.03250   0.80900   0.39760   0.01267  Uiso   1.00
H166   H     0.91920   0.69740   0.40580   0.01267  Uiso   1.00
H167   H     0.06200   0.71100   0.40700   0.01267  Uiso   1.00
H168   H     0.78820   0.63940   0.43510   0.01267  Uiso   1.00
H169   H     0.72850   0.65340   0.46830   0.01267  Uiso   1.00
H170   H     0.73530   0.78600   0.50230   0.01267  Uiso   1.00
H171   H     0.82410   0.87340   0.53010   0.01267  Uiso   1.00
H172   H     0.79330   0.74700   0.52980   0.01267  Uiso   1.00
H173   H     0.29020   0.07380   0.37380   0.01267  Uiso   1.00
H174   H     0.47430   0.18620   0.34450   0.01267  Uiso   1.00
H175   H     0.69270   0.09980   0.40450   0.01267  Uiso   1.00
H176   H     0.51070   0.99420   0.43090   0.01267  Uiso   1.00
H177   H     0.61620   0.85180   0.40760   0.01267  Uiso   1.00
H178   H     0.41330   0.76700   0.38020   0.01267  Uiso   1.00
H179   H     0.34750   0.47280   0.41290   0.01267  Uiso   1.00
H180   H     0.56110   0.55560   0.43810   0.01267  Uiso   1.00
H181   H     0.74150   0.46640   0.86550   0.01267  Uiso   1.00
H182   H     0.85060   0.73620   0.81630   0.01267  Uiso   1.00
H183   H     0.61150   0.65200   0.82250   0.01267  Uiso   1.00
H184   H     0.02980   0.69700   0.85770   0.01267  Uiso   1.00
H185   H     0.98140   0.56980   0.86140   0.01267  Uiso   1.00
H186   H     0.14140   0.82180   0.83880   0.01267  Uiso   1.00
H187   H     0.24140   0.87100   0.81240   0.01267  Uiso   1.00
H188   H     0.09550   0.84340   0.80600   0.01267  Uiso   1.00
H189   H     0.83810   0.37440   0.81230   0.01267  Uiso   1.00
H190   H     0.94630   0.33220   0.81310   0.01267  Uiso   1.00
H191   H     0.93540   0.41100   0.84220   0.01267  Uiso   1.00
H192   H     0.33560   0.62460   0.73500   0.01267  Uiso   1.00
H193   H     0.26380   0.49500   0.73560   0.01267  Uiso   1.00
H194   H     0.20810   0.55460   0.71380   0.01267  Uiso   1.00
H195   H     0.26340   0.84680   0.76410   0.01267  Uiso   1.00
H196   H     0.27090   0.76600   0.73490   0.01267  Uiso   1.00
H197   H     0.51290   0.88000   0.72940   0.01267  Uiso   1.00
H198   H     0.65700   0.85280   0.81320   0.01267  Uiso   1.00
H199   H     0.41850   0.76720   0.81550   0.01267  Uiso   1.00
H200   H     0.97690   0.31340   0.76610   0.01267  Uiso   1.00
H201   H     0.06780   0.36480   0.73810   0.01267  Uiso   1.00
H202   H     0.25480   0.47300   0.81120   0.01267  Uiso   1.00
H203   H     0.31230   0.20220   0.78970   0.01267  Uiso   1.00
H204   H     0.13520   0.18820   0.75170   0.01267  Uiso   1.00
C1     C     0.05530   0.96040   0.19207   0.01267  Uiso   1.00
C2     C     0.99270   0.93480   0.15821   0.01267  Uiso   1.00
C3     C     0.00870   0.02620   0.14155   0.01267  Uiso   1.00
C4     C     0.95750   0.00420   0.10977   0.01267  Uiso   1.00
C5     C     0.89150   0.89400   0.09667   0.01267  Uiso   1.00
C6     C     0.87830   0.80200   0.11294   0.01267  Uiso   1.00
C7     C     0.93100   0.82560   0.14408   0.01267  Uiso   1.00
C8     C     0.88920   0.95560   0.04446   0.01267  Uiso   1.00
C9     C     0.84000   0.89380   0.01050   0.01267  Uiso   1.00
C10    C     0.74960   0.91400   0.99316   0.01267  Uiso   1.00
C11    C     0.71800   0.86640   0.96068   0.01267  Uiso   1.00
C12    C     0.77300   0.79720   0.94672   0.01267  Uiso   1.00
C13    C     0.86090   0.77560   0.96537   0.01267  Uiso   1.00
C14    C     0.89560   0.82460   0.99698   0.01267  Uiso   1.00
C15    C     0.68390   0.98700   0.00900   0.01267  Uiso   1.00
C16    C     0.61790   0.88800   0.94114   0.01267  Uiso   1.00
C17    C     0.74110   0.74900   0.91083   0.01267  Uiso   1.00
C18    C     0.91110   0.69320   0.95160   0.01267  Uiso   1.00
C19    C     0.99690   0.80600   0.01663   0.01267  Uiso   1.00
C20    C     0.63370   0.02220   0.90620   0.01267  Uiso   1.00
C21    C     0.70870   0.08100   0.87920   0.01267  Uiso   1.00
C22    C     0.66820   0.14840   0.86140   0.01267  Uiso   1.00
C23    C     0.54750   0.14920   0.87370   0.01267  Uiso   1.00
C24    C     0.48250   0.09500   0.89820   0.01267  Uiso   1.00
C25    C     0.52920   0.03140   0.91410   0.01267  Uiso   1.00
C26    C     0.49830   0.22840   0.85930   0.01267  Uiso   1.00
C27    C     0.10580   0.71120   0.92448   0.01267  Uiso   1.00
C28    C     0.21230   0.77600   0.90803   0.01267  Uiso   1.00
C29    C     0.28420   0.72560   0.89212   0.01267  Uiso   1.00
C30    C     0.25110   0.61340   0.89432   0.01267  Uiso   1.00
C31    C     0.14490   0.54740   0.91155   0.01267  Uiso   1.00
C32    C     0.06680   0.59700   0.92703   0.01267  Uiso   1.00
C33    C     0.33050   0.55980   0.87690   0.01267  Uiso   1.00
C34    C     0.78320   0.52140   0.35402   0.01267  Uiso   1.00
C35    C     0.87280   0.67360   0.32639   0.01267  Uiso   1.00
C36    C     0.95740   0.62580   0.33011   0.01267  Uiso   1.00
C37    C     0.64280   0.62220   0.34719   0.01267  Uiso   1.00
C38    C     0.56540   0.60640   0.31561   0.01267  Uiso   1.00
C39    C     0.47870   0.49580   0.30354   0.01267  Uiso   1.00
C40    C     0.39930   0.48240   0.27524   0.01267  Uiso   1.00
C41    C     0.40660   0.57860   0.26190   0.01267  Uiso   1.00
C42    C     0.49260   0.68320   0.27414   0.01267  Uiso   1.00
C43    C     0.57510   0.70300   0.30200   0.01267  Uiso   1.00
C44    C     0.66670   0.82060   0.31610   0.01267  Uiso   1.00
C45    C     0.46810   0.39380   0.31922   0.01267  Uiso   1.00
C46    C     0.30900   0.56160   0.23391   0.01267  Uiso   1.00
C47    C     0.50110   0.78320   0.25810   0.01267  Uiso   1.00
C48    C     0.34380   0.86240   0.25010   0.01267  Uiso   1.00
C49    C     0.24860   0.84680   0.29694   0.01267  Uiso   1.00
C50    C     0.33350   0.79960   0.29830   0.01267  Uiso   1.00
C51    C     0.30590   0.36780   0.26127   0.01267  Uiso   1.00
C52    C     0.15710   0.40480   0.30130   0.01267  Uiso   1.00
C53    C     0.97570   0.25400   0.28920   0.01267  Uiso   1.00
C54    C     0.06570   0.24580   0.26780   0.01267  Uiso   1.00
C55    C     0.09490   0.03960   0.30793   0.01267  Uiso   1.00
C56    C     0.05790   0.06520   0.34179   0.01267  Uiso   1.00
C57    C     0.98250   0.97380   0.35845   0.01267  Uiso   1.00
C58    C     0.95330   0.99580   0.39023   0.01267  Uiso   1.00
C59    C     0.99750   0.10600   0.40333   0.01267  Uiso   1.00
C60    C     0.07630   0.19800   0.38706   0.01267  Uiso   1.00
C61    C     0.10540   0.17440   0.35592   0.01267  Uiso   1.00
C62    C     0.93360   0.04440   0.45554   0.01267  Uiso   1.00
C63    C     0.94620   0.10620   0.48950   0.01267  Uiso   1.00
C64    C     0.83560   0.08600   0.50684   0.01267  Uiso   1.00
C65    C     0.85160   0.13360   0.53932   0.01267  Uiso   1.00
C66    C     0.97580   0.20280   0.55328   0.01267  Uiso   1.00
C67    C     0.08530   0.22440   0.53463   0.01267  Uiso   1.00
C68    C     0.07100   0.17540   0.50302   0.01267  Uiso   1.00
C69    C     0.69690   0.01300   0.49100   0.01267  Uiso   1.00
C70    C     0.72990   0.11200   0.55886   0.01267  Uiso   1.00
C71    C     0.99210   0.25100   0.58917   0.01267  Uiso   1.00
C72    C     0.21790   0.30680   0.54840   0.01267  Uiso   1.00
C73    C     0.19090   0.19400   0.48337   0.01267  Uiso   1.00
C74    C     0.61150   0.97780   0.59380   0.01267  Uiso   1.00
C75    C     0.62770   0.91900   0.62080   0.01267  Uiso   1.00
C76    C     0.51980   0.85160   0.63860   0.01267  Uiso   1.00
C77    C     0.39830   0.85080   0.62630   0.01267  Uiso   1.00
C78    C     0.38750   0.90500   0.60180   0.01267  Uiso   1.00
C79    C     0.49780   0.96860   0.58590   0.01267  Uiso   1.00
C80    C     0.26990   0.77160   0.64070   0.01267  Uiso   1.00
C81    C     0.39460   0.28880   0.57552   0.01267  Uiso   1.00
C82    C     0.43630   0.22400   0.59197   0.01267  Uiso   1.00
C83    C     0.55860   0.27440   0.60788   0.01267  Uiso   1.00
C84    C     0.63770   0.38660   0.60568   0.01267  Uiso   1.00
C85    C     0.59750   0.45260   0.58845   0.01267  Uiso   1.00
C86    C     0.46980   0.40300   0.57297   0.01267  Uiso   1.00
C87    C     0.77070   0.44020   0.62310   0.01267  Uiso   1.00
C88    C     0.26180   0.47860   0.14598   0.01267  Uiso   1.00
C89    C     0.19920   0.32640   0.17361   0.01267  Uiso   1.00
C90    C     0.33160   0.37420   0.16989   0.01267  Uiso   1.00
C91    C     0.02060   0.37780   0.15281   0.01267  Uiso   1.00
C92    C     0.95900   0.39360   0.18439   0.01267  Uiso   1.00
C93    C     0.98290   0.50420   0.19646   0.01267  Uiso   1.00
C94    C     0.91690   0.51760   0.22476   0.01267  Uiso   1.00
C95    C     0.82800   0.42140   0.23810   0.01267  Uiso   1.00
C96    C     0.80940   0.31680   0.22586   0.01267  Uiso   1.00
C97    C     0.87210   0.29700   0.19800   0.01267  Uiso   1.00
C98    C     0.84610   0.17940   0.18390   0.01267  Uiso   1.00
C99    C     0.07430   0.60620   0.18078   0.01267  Uiso   1.00
C100   C     0.74740   0.43840   0.26609   0.01267  Uiso   1.00
C101   C     0.71790   0.21680   0.24190   0.01267  Uiso   1.00
C102   C     0.48140   0.13760   0.24990   0.01267  Uiso   1.00
C103   C     0.40180   0.15320   0.20306   0.01267  Uiso   1.00
C104   C     0.53390   0.20040   0.20170   0.01267  Uiso   1.00
C105   C     0.93810   0.63220   0.23873   0.01267  Uiso   1.00
C106   C     0.75230   0.59520   0.19870   0.01267  Uiso   1.00
C107   C     0.72170   0.74600   0.21080   0.01267  Uiso   1.00
C108   C     0.81990   0.75420   0.23220   0.01267  Uiso   1.00
C109   C     0.94470   0.03960   0.80793   0.01267  Uiso   1.00
C110   C     0.00730   0.06520   0.84179   0.01267  Uiso   1.00
C111   C     0.99130   0.97380   0.85845   0.01267  Uiso   1.00
C112   C     0.04250   0.99580   0.89023   0.01267  Uiso   1.00
C113   C     0.10850   0.10600   0.90333   0.01267  Uiso   1.00
C114   C     0.12170   0.19800   0.88706   0.01267  Uiso   1.00
C115   C     0.06900   0.17440   0.85592   0.01267  Uiso   1.00
C116   C     0.11080   0.04440   0.95554   0.01267  Uiso   1.00
C117   C     0.16000   0.10620   0.98950   0.01267  Uiso   1.00
C118   C     0.25040   0.08600   0.00684   0.01267  Uiso   1.00
C119   C     0.28200   0.13360   0.03932   0.01267  Uiso   1.00
C120   C     0.22700   0.20280   0.05328   0.01267  Uiso   1.00
C121   C     0.13910   0.22440   0.03463   0.01267  Uiso   1.00
C122   C     0.10440   0.17540   0.00302   0.01267  Uiso   1.00
C123   C     0.31610   0.01300   0.99100   0.01267  Uiso   1.00
C124   C     0.38210   0.11200   0.05886   0.01267  Uiso   1.00
C125   C     0.25890   0.25100   0.08917   0.01267  Uiso   1.00
C126   C     0.08890   0.30680   0.04840   0.01267  Uiso   1.00
C127   C     0.00310   0.19400   0.98337   0.01267  Uiso   1.00
C128   C     0.36630   0.97780   0.09380   0.01267  Uiso   1.00
C129   C     0.29130   0.91900   0.12080   0.01267  Uiso   1.00
C130   C     0.33180   0.85160   0.13860   0.01267  Uiso   1.00
C131   C     0.45250   0.85080   0.12630   0.01267  Uiso   1.00
C132   C     0.51750   0.90500   0.10180   0.01267  Uiso   1.00
C133   C     0.47080   0.96860   0.08590   0.01267  Uiso   1.00
C134   C     0.50170   0.77160   0.14070   0.01267  Uiso   1.00
C135   C     0.89420   0.28880   0.07552   0.01267  Uiso   1.00
C136   C     0.78770   0.22400   0.09197   0.01267  Uiso   1.00
C137   C     0.71580   0.27440   0.10788   0.01267  Uiso   1.00
C138   C     0.74890   0.38660   0.10568   0.01267  Uiso   1.00
C139   C     0.85510   0.45260   0.08845   0.01267  Uiso   1.00
C140   C     0.93320   0.40300   0.07297   0.01267  Uiso   1.00
C141   C     0.66950   0.44020   0.12310   0.01267  Uiso   1.00
C142   C     0.21680   0.47860   0.64598   0.01267  Uiso   1.00
C143   C     0.12720   0.32640   0.67361   0.01267  Uiso   1.00
C144   C     0.04260   0.37420   0.66989   0.01267  Uiso   1.00
C145   C     0.35720   0.37780   0.65281   0.01267  Uiso   1.00
C146   C     0.43460   0.39360   0.68439   0.01267  Uiso   1.00
C147   C     0.52130   0.50420   0.69646   0.01267  Uiso   1.00
C148   C     0.60070   0.51760   0.72476   0.01267  Uiso   1.00
C149   C     0.59340   0.42140   0.73810   0.01267  Uiso   1.00
C150   C     0.50740   0.31680   0.72586   0.01267  Uiso   1.00
C151   C     0.42490   0.29700   0.69800   0.01267  Uiso   1.00
C152   C     0.33330   0.17940   0.68390   0.01267  Uiso   1.00
C153   C     0.53190   0.60620   0.68078   0.01267  Uiso   1.00
C154   C     0.69100   0.43840   0.76609   0.01267  Uiso   1.00
C155   C     0.49890   0.21680   0.74190   0.01267  Uiso   1.00
C156   C     0.65620   0.13760   0.74990   0.01267  Uiso   1.00
C157   C     0.75140   0.15320   0.70306   0.01267  Uiso   1.00
C158   C     0.66650   0.20040   0.70170   0.01267  Uiso   1.00
C159   C     0.69410   0.63220   0.73873   0.01267  Uiso   1.00
C160   C     0.84290   0.59520   0.69870   0.01267  Uiso   1.00
C161   C     0.02430   0.74600   0.71080   0.01267  Uiso   1.00
C162   C     0.93430   0.75420   0.73220   0.01267  Uiso   1.00
C163   C     0.90510   0.96040   0.69207   0.01267  Uiso   1.00
C164   C     0.94210   0.93480   0.65821   0.01267  Uiso   1.00
C165   C     0.01750   0.02620   0.64155   0.01267  Uiso   1.00
C166   C     0.04670   0.00420   0.60977   0.01267  Uiso   1.00
C167   C     0.00250   0.89400   0.59667   0.01267  Uiso   1.00
C168   C     0.92370   0.80200   0.61294   0.01267  Uiso   1.00
C169   C     0.89460   0.82560   0.64408   0.01267  Uiso   1.00
C170   C     0.06640   0.95560   0.54446   0.01267  Uiso   1.00
C171   C     0.05380   0.89380   0.51050   0.01267  Uiso   1.00
C172   C     0.16440   0.91400   0.49316   0.01267  Uiso   1.00
C173   C     0.14840   0.86640   0.46068   0.01267  Uiso   1.00
C174   C     0.02420   0.79720   0.44672   0.01267  Uiso   1.00
C175   C     0.91470   0.77560   0.46537   0.01267  Uiso   1.00
C176   C     0.92900   0.82460   0.49698   0.01267  Uiso   1.00
C177   C     0.30310   0.98700   0.50900   0.01267  Uiso   1.00
C178   C     0.27010   0.88800   0.44114   0.01267  Uiso   1.00
C179   C     0.00790   0.74900   0.41083   0.01267  Uiso   1.00
C180   C     0.78210   0.69320   0.45160   0.01267  Uiso   1.00
C181   C     0.80910   0.80600   0.51663   0.01267  Uiso   1.00
C182   C     0.38850   0.02220   0.40620   0.01267  Uiso   1.00
C183   C     0.37230   0.08100   0.37920   0.01267  Uiso   1.00
C184   C     0.48020   0.14840   0.36140   0.01267  Uiso   1.00
C185   C     0.60170   0.14920   0.37370   0.01267  Uiso   1.00
C186   C     0.61250   0.09500   0.39820   0.01267  Uiso   1.00
C187   C     0.50220   0.03140   0.41410   0.01267  Uiso   1.00
C188   C     0.73010   0.22840   0.35930   0.01267  Uiso   1.00
C189   C     0.60540   0.71120   0.42448   0.01267  Uiso   1.00
C190   C     0.56370   0.77600   0.40803   0.01267  Uiso   1.00
C191   C     0.44140   0.72560   0.39212   0.01267  Uiso   1.00
C192   C     0.36230   0.61340   0.39432   0.01267  Uiso   1.00
C193   C     0.40250   0.54740   0.41155   0.01267  Uiso   1.00
C194   C     0.53020   0.59700   0.42703   0.01267  Uiso   1.00
C195   C     0.22930   0.55980   0.37690   0.01267  Uiso   1.00
C196   C     0.73820   0.52140   0.85402   0.01267  Uiso   1.00
C197   C     0.80080   0.67360   0.82639   0.01267  Uiso   1.00
C198   C     0.66840   0.62580   0.83011   0.01267  Uiso   1.00
C199   C     0.97940   0.62220   0.84719   0.01267  Uiso   1.00
C200   C     0.04100   0.60640   0.81561   0.01267  Uiso   1.00
C201   C     0.01710   0.49580   0.80354   0.01267  Uiso   1.00
C202   C     0.08310   0.48240   0.77524   0.01267  Uiso   1.00
C203   C     0.17200   0.57860   0.76190   0.01267  Uiso   1.00
C204   C     0.19060   0.68320   0.77414   0.01267  Uiso   1.00
C205   C     0.12790   0.70300   0.80200   0.01267  Uiso   1.00
C206   C     0.15390   0.82060   0.81610   0.01267  Uiso   1.00
C207   C     0.92570   0.39380   0.81922   0.01267  Uiso   1.00
C208   C     0.25260   0.56160   0.73391   0.01267  Uiso   1.00
C209   C     0.28210   0.78320   0.75810   0.01267  Uiso   1.00
C210   C     0.51860   0.86240   0.75010   0.01267  Uiso   1.00
C211   C     0.59820   0.84680   0.79694   0.01267  Uiso   1.00
C212   C     0.46610   0.79960   0.79830   0.01267  Uiso   1.00
C213   C     0.06190   0.36780   0.76127   0.01267  Uiso   1.00
C214   C     0.24770   0.40480   0.80130   0.01267  Uiso   1.00
C215   C     0.27830   0.25400   0.78920   0.01267  Uiso   1.00
C216   C     0.18010   0.24580   0.76780   0.01267  Uiso   1.00
N1     N     0.90020   0.53400   0.34669   0.01267  Uiso   1.00
N2     N     0.76340   0.60420   0.34163   0.01267  Uiso   1.00
N3     N     0.03540   0.35220   0.30959   0.01267  Uiso   1.00
N4     N     0.17820   0.34280   0.27592   0.01267  Uiso   1.00
N5     N     0.39370   0.81000   0.26863   0.01267  Uiso   1.00
N6     N     0.25610   0.88420   0.26663   0.01267  Uiso   1.00
N7     N     0.36620   0.46600   0.15331   0.01267  Uiso   1.00
N8     N     0.15920   0.39580   0.15837   0.01267  Uiso   1.00
N9     N     0.68320   0.64780   0.19041   0.01267  Uiso   1.00
N10    N     0.83540   0.65720   0.22408   0.01267  Uiso   1.00
N11    N     0.58370   0.19000   0.23137   0.01267  Uiso   1.00
N12    N     0.37190   0.11580   0.23337   0.01267  Uiso   1.00
N13    N     0.09980   0.46600   0.65331   0.01267  Uiso   1.00
N14    N     0.23660   0.39580   0.65837   0.01267  Uiso   1.00
N15    N     0.96460   0.64780   0.69041   0.01267  Uiso   1.00
N16    N     0.82180   0.65720   0.72408   0.01267  Uiso   1.00
N17    N     0.60630   0.19000   0.73137   0.01267  Uiso   1.00
N18    N     0.74390   0.11580   0.73337   0.01267  Uiso   1.00
N19    N     0.63380   0.53400   0.84669   0.01267  Uiso   1.00
N20    N     0.84080   0.60420   0.84163   0.01267  Uiso   1.00
N21    N     0.31680   0.35220   0.80959   0.01267  Uiso   1.00
N22    N     0.16460   0.34280   0.77592   0.01267  Uiso   1.00
N23    N     0.41630   0.81000   0.76863   0.01267  Uiso   1.00
N24    N     0.62810   0.88420   0.76663   0.01267  Uiso   1.00
O1     O     0.08400   0.88960   0.20278   0.01267  Uiso   1.00
O2     O     0.07620   0.05200   0.20800   0.01267  Uiso   1.00
O3     O     0.83600   0.86520   0.06551   0.01267  Uiso   1.00
O4     O     0.69950   0.97720   0.92360   0.01267  Uiso   1.00
O5     O     0.45110   0.27520   0.87710   0.01267  Uiso   1.00
O6     O     0.53980   0.25260   0.83133   0.01267  Uiso   1.00
O7     O     0.03490   0.76420   0.93795   0.01267  Uiso   1.00
O8     O     0.39950   0.60360   0.85553   0.01267  Uiso   1.00
O9     O     0.31170   0.46460   0.88521   0.01267  Uiso   1.00
O10    O     0.19440   0.11040   0.29722   0.01267  Uiso   1.00
O11    O     0.02420   0.94800   0.29200   0.01267  Uiso   1.00
O12    O     0.97080   0.13480   0.43449   0.01267  Uiso   1.00
O13    O     0.72230   0.02280   0.57640   0.01267  Uiso   1.00
O14    O     0.17590   0.72480   0.62290   0.01267  Uiso   1.00
O15    O     0.28720   0.74740   0.66867   0.01267  Uiso   1.00
O16    O     0.27070   0.23580   0.56205   0.01267  Uiso   1.00
O17    O     0.79590   0.39640   0.64447   0.01267  Uiso   1.00
O18    O     0.84710   0.53540   0.61479   0.01267  Uiso   1.00
O19    O     0.91600   0.11040   0.79722   0.01267  Uiso   1.00
O20    O     0.92380   0.94800   0.79200   0.01267  Uiso   1.00
O21    O     0.16400   0.13480   0.93449   0.01267  Uiso   1.00
O22    O     0.30050   0.02280   0.07640   0.01267  Uiso   1.00
O23    O     0.54890   0.72480   0.12290   0.01267  Uiso   1.00
O24    O     0.46020   0.74740   0.16867   0.01267  Uiso   1.00
O25    O     0.96510   0.23580   0.06205   0.01267  Uiso   1.00
O26    O     0.60050   0.39640   0.14447   0.01267  Uiso   1.00
O27    O     0.68830   0.53540   0.11479   0.01267  Uiso   1.00
O28    O     0.80560   0.88960   0.70278   0.01267  Uiso   1.00
O29    O     0.97580   0.05200   0.70800   0.01267  Uiso   1.00
O30    O     0.02920   0.86520   0.56551   0.01267  Uiso   1.00
O31    O     0.27770   0.97720   0.42360   0.01267  Uiso   1.00
O32    O     0.82410   0.27520   0.37710   0.01267  Uiso   1.00
O33    O     0.71280   0.25260   0.33133   0.01267  Uiso   1.00
O34    O     0.72930   0.76420   0.43795   0.01267  Uiso   1.00
O35    O     0.20410   0.60360   0.35553   0.01267  Uiso   1.00
O36    O     0.15290   0.46460   0.38521   0.01267  Uiso   1.00
