data_DEHLAF_clean
_audit_creation_date              2014-07-02
_audit_creation_method            'Materials Studio'
_symmetry_space_group_name_H-M    'P1'
_symmetry_Int_Tables_number       1
_symmetry_cell_setting            triclinic
loop_
_symmetry_equiv_pos_as_xyz
  x,y,z
_cell_length_a                    11.2040
_cell_length_b                    13.0440
_cell_length_c                    41.5180
_cell_angle_alpha                 94.0775
_cell_angle_beta                  90.0000
_cell_angle_gamma                 115.4340
loop_
_atom_site_label
_atom_site_type_symbol
_atom_site_fract_x
_atom_site_fract_y
_atom_site_fract_z
_atom_site_U_iso_or_equiv
_atom_site_adp_type
_atom_site_occupancy
Co1    Co    0.04417   0.60066   0.64598   0.01267  Uiso   1.00
Co2    Co    0.44351   0.39934   0.85402   0.01267  Uiso   1.00
Co3    Co    0.95583   0.39934   0.35402   0.01267  Uiso   1.00
Co4    Co    0.55649   0.60066   0.14598   0.01267  Uiso   1.00
Co5    Co    0.82401   1.00000   0.75000   0.01267  Uiso   1.00
Co6    Co    0.17599   1.00000   0.25000   0.01267  Uiso   1.00
H1     H     0.14130   0.21220   0.33770   0.01267  Uiso   1.00
H2     H     0.09560   0.25700   0.38950   0.01267  Uiso   1.00
H3     H     0.89820   0.92520   0.40200   0.01267  Uiso   1.00
H4     H     0.93950   0.88100   0.34950   0.01267  Uiso   1.00
H5     H     0.85460   0.99020   0.45230   0.01267  Uiso   1.00
H6     H     0.00510   0.01480   0.45290   0.01267  Uiso   1.00
H7     H     0.28600   0.21980   0.49060   0.01267  Uiso   1.00
H8     H     0.18840   0.13560   0.46360   0.01267  Uiso   1.00
H9     H     0.22600   0.26620   0.46430   0.01267  Uiso   1.00
H10    H     0.25050   0.38020   0.55640   0.01267  Uiso   1.00
H11    H     0.30420   0.35540   0.52310   0.01267  Uiso   1.00
H12    H     0.95110   0.24480   0.59550   0.01267  Uiso   1.00
H13    H     0.10350   0.28200   0.59290   0.01267  Uiso   1.00
H14    H     0.04160   0.36220   0.58240   0.01267  Uiso   1.00
H15    H     0.68050   0.11540   0.54530   0.01267  Uiso   1.00
H16    H     0.77460   0.20700   0.57180   0.01267  Uiso   1.00
H17    H     0.65680   0.00220   0.51240   0.01267  Uiso   1.00
H18    H     0.68350   0.06420   0.48040   0.01267  Uiso   1.00
H19    H     0.71220   0.95740   0.48270   0.01267  Uiso   1.00
H20    H     0.73280   0.96160   0.62920   0.01267  Uiso   1.00
H21    H     0.55290   0.85760   0.65780   0.01267  Uiso   1.00
H22    H     0.31780   0.89200   0.59290   0.01267  Uiso   1.00
H23    H     0.50060   0.00920   0.56550   0.01267  Uiso   1.00
H24    H     0.48960   0.46220   0.55510   0.01267  Uiso   1.00
H25    H     0.69560   0.53940   0.58130   0.01267  Uiso   1.00
H26    H     0.60760   0.24300   0.61830   0.01267  Uiso   1.00
H27    H     0.40810   0.16440   0.59030   0.01267  Uiso   1.00
H28    H     0.97610   0.35940   0.67570   0.01267  Uiso   1.00
H29    H     0.14020   0.28260   0.68140   0.01267  Uiso   1.00
H30    H     0.29370   0.55720   0.63280   0.01267  Uiso   1.00
H31    H     0.36750   0.33260   0.64020   0.01267  Uiso   1.00
H32    H     0.44360   0.46440   0.63830   0.01267  Uiso   1.00
H33    H     0.33250   0.19940   0.66000   0.01267  Uiso   1.00
H34    H     0.39810   0.14660   0.68300   0.01267  Uiso   1.00
H35    H     0.27540   0.16620   0.69410   0.01267  Uiso   1.00
H36    H     0.62090   0.69340   0.69320   0.01267  Uiso   1.00
H37    H     0.58260   0.62260   0.65960   0.01267  Uiso   1.00
H38    H     0.47220   0.63020   0.68150   0.01267  Uiso   1.00
H39    H     0.72090   0.37300   0.76330   0.01267  Uiso   1.00
H40    H     0.78340   0.50640   0.76530   0.01267  Uiso   1.00
H41    H     0.66000   0.43900   0.78560   0.01267  Uiso   1.00
H42    H     0.73470   0.64440   0.76090   0.01267  Uiso   1.00
H43    H     0.69480   0.70280   0.73370   0.01267  Uiso   1.00
H44    H     0.98350   0.82200   0.74400   0.01267  Uiso   1.00
H45    H     0.13790   0.80500   0.70490   0.01267  Uiso   1.00
H46    H     0.80440   0.53780   0.68880   0.01267  Uiso   1.00
H47    H     0.42720   0.16000   0.73360   0.01267  Uiso   1.00
H48    H     0.51410   0.23600   0.76340   0.01267  Uiso   1.00
H49    H     0.67550   0.24240   0.68470   0.01267  Uiso   1.00
H50    H     0.82390   0.15260   0.68850   0.01267  Uiso   1.00
H51    H     0.63800   0.11180   0.76930   0.01267  Uiso   1.00
H52    H     0.92910   0.78780   0.16230   0.01267  Uiso   1.00
H53    H     0.83860   0.74300   0.11050   0.01267  Uiso   1.00
H54    H     0.97300   0.07480   0.09800   0.01267  Uiso   1.00
H55    H     0.05850   0.11900   0.15050   0.01267  Uiso   1.00
H56    H     0.86440   0.00980   0.04770   0.01267  Uiso   1.00
H57    H     0.99030   0.98520   0.04710   0.01267  Uiso   1.00
H58    H     0.06620   0.78020   0.00940   0.01267  Uiso   1.00
H59    H     0.05280   0.86440   0.03640   0.01267  Uiso   1.00
H60    H     0.95980   0.73380   0.03570   0.01267  Uiso   1.00
H61    H     0.87030   0.61980   0.94360   0.01267  Uiso   1.00
H62    H     0.94880   0.64460   0.97690   0.01267  Uiso   1.00
H63    H     0.70630   0.75520   0.90450   0.01267  Uiso   1.00
H64    H     0.82150   0.71800   0.90710   0.01267  Uiso   1.00
H65    H     0.67940   0.63780   0.91760   0.01267  Uiso   1.00
H66    H     0.56510   0.88460   0.95470   0.01267  Uiso   1.00
H67    H     0.56760   0.79300   0.92820   0.01267  Uiso   1.00
H68    H     0.65460   0.99780   0.98760   0.01267  Uiso   1.00
H69    H     0.61930   0.93580   0.01960   0.01267  Uiso   1.00
H70    H     0.75480   0.04260   0.01730   0.01267  Uiso   1.00
H71    H     0.77120   0.03840   0.87080   0.01267  Uiso   1.00
H72    H     0.69530   0.14240   0.84220   0.01267  Uiso   1.00
H73    H     0.42580   0.10800   0.90710   0.01267  Uiso   1.00
H74    H     0.49140   0.99080   0.93450   0.01267  Uiso   1.00
H75    H     0.02740   0.53780   0.94490   0.01267  Uiso   1.00
H76    H     0.15620   0.46060   0.91870   0.01267  Uiso   1.00
H77    H     0.36460   0.75700   0.88170   0.01267  Uiso   1.00
H78    H     0.24370   0.83560   0.90970   0.01267  Uiso   1.00
H79    H     0.61670   0.64060   0.82430   0.01267  Uiso   1.00
H80    H     0.85760   0.71740   0.81860   0.01267  Uiso   1.00
H81    H     0.73650   0.44280   0.86720   0.01267  Uiso   1.00
H82    H     0.03490   0.66740   0.85980   0.01267  Uiso   1.00
H83    H     0.97920   0.53560   0.86170   0.01267  Uiso   1.00
H84    H     0.13310   0.80060   0.84000   0.01267  Uiso   1.00
H85    H     0.25150   0.85340   0.81700   0.01267  Uiso   1.00
H86    H     0.10920   0.83380   0.80590   0.01267  Uiso   1.00
H87    H     0.92750   0.30660   0.80680   0.01267  Uiso   1.00
H88    H     0.96000   0.37740   0.84040   0.01267  Uiso   1.00
H89    H     0.84200   0.36980   0.81850   0.01267  Uiso   1.00
H90    H     0.34790   0.62700   0.73670   0.01267  Uiso   1.00
H91    H     0.27700   0.49360   0.73470   0.01267  Uiso   1.00
H92    H     0.22100   0.56100   0.71440   0.01267  Uiso   1.00
H93    H     0.09030   0.35560   0.73910   0.01267  Uiso   1.00
H94    H     0.99200   0.29720   0.76630   0.01267  Uiso   1.00
H95    H     0.16150   0.17800   0.75600   0.01267  Uiso   1.00
H96    H     0.33290   0.19500   0.79510   0.01267  Uiso   1.00
H97    H     0.26660   0.46220   0.81120   0.01267  Uiso   1.00
H98    H     0.26720   0.84000   0.76640   0.01267  Uiso   1.00
H99    H     0.27810   0.76400   0.73660   0.01267  Uiso   1.00
H100   H     0.43310   0.75760   0.81530   0.01267  Uiso   1.00
H101   H     0.67130   0.84740   0.81150   0.01267  Uiso   1.00
H102   H     0.52620   0.88820   0.73070   0.01267  Uiso   1.00
H103   H     0.85870   0.78780   0.66230   0.01267  Uiso   1.00
H104   H     0.90440   0.74300   0.61050   0.01267  Uiso   1.00
H105   H     0.10180   0.07480   0.59800   0.01267  Uiso   1.00
H106   H     0.06050   0.11900   0.65050   0.01267  Uiso   1.00
H107   H     0.14540   0.00980   0.54770   0.01267  Uiso   1.00
H108   H     0.99490   0.98520   0.54710   0.01267  Uiso   1.00
H109   H     0.71400   0.78020   0.50940   0.01267  Uiso   1.00
H110   H     0.81160   0.86440   0.53640   0.01267  Uiso   1.00
H111   H     0.77400   0.73380   0.53570   0.01267  Uiso   1.00
H112   H     0.74950   0.61980   0.44360   0.01267  Uiso   1.00
H113   H     0.69580   0.64460   0.47690   0.01267  Uiso   1.00
H114   H     0.04890   0.75520   0.40450   0.01267  Uiso   1.00
H115   H     0.89650   0.71800   0.40710   0.01267  Uiso   1.00
H116   H     0.95840   0.63780   0.41760   0.01267  Uiso   1.00
H117   H     0.31950   0.88460   0.45470   0.01267  Uiso   1.00
H118   H     0.22540   0.79300   0.42820   0.01267  Uiso   1.00
H119   H     0.34320   0.99780   0.48760   0.01267  Uiso   1.00
H120   H     0.31650   0.93580   0.51960   0.01267  Uiso   1.00
H121   H     0.28780   0.04260   0.51730   0.01267  Uiso   1.00
H122   H     0.26720   0.03840   0.37080   0.01267  Uiso   1.00
H123   H     0.44710   0.14240   0.34220   0.01267  Uiso   1.00
H124   H     0.68220   0.10800   0.40710   0.01267  Uiso   1.00
H125   H     0.49940   0.99080   0.43450   0.01267  Uiso   1.00
H126   H     0.51040   0.53780   0.44490   0.01267  Uiso   1.00
H127   H     0.30440   0.46060   0.41870   0.01267  Uiso   1.00
H128   H     0.39240   0.75700   0.38170   0.01267  Uiso   1.00
H129   H     0.59190   0.83560   0.40970   0.01267  Uiso   1.00
H130   H     0.02390   0.64060   0.32430   0.01267  Uiso   1.00
H131   H     0.85980   0.71740   0.31860   0.01267  Uiso   1.00
H132   H     0.70630   0.44280   0.36720   0.01267  Uiso   1.00
H133   H     0.63250   0.66740   0.35980   0.01267  Uiso   1.00
H134   H     0.55640   0.53560   0.36170   0.01267  Uiso   1.00
H135   H     0.66750   0.80060   0.34000   0.01267  Uiso   1.00
H136   H     0.60190   0.85340   0.31700   0.01267  Uiso   1.00
H137   H     0.72460   0.83380   0.30590   0.01267  Uiso   1.00
H138   H     0.37910   0.30660   0.30680   0.01267  Uiso   1.00
H139   H     0.41740   0.37740   0.34040   0.01267  Uiso   1.00
H140   H     0.52780   0.36980   0.31850   0.01267  Uiso   1.00
H141   H     0.27910   0.62700   0.23670   0.01267  Uiso   1.00
H142   H     0.21660   0.49360   0.23470   0.01267  Uiso   1.00
H143   H     0.34000   0.56100   0.21440   0.01267  Uiso   1.00
H144   H     0.26530   0.35560   0.23910   0.01267  Uiso   1.00
H145   H     0.30520   0.29720   0.26630   0.01267  Uiso   1.00
H146   H     0.01650   0.17800   0.25600   0.01267  Uiso   1.00
H147   H     0.86210   0.19500   0.29510   0.01267  Uiso   1.00
H148   H     0.19560   0.46220   0.31120   0.01267  Uiso   1.00
H149   H     0.57280   0.84000   0.26640   0.01267  Uiso   1.00
H150   H     0.48590   0.76400   0.23660   0.01267  Uiso   1.00
H151   H     0.32450   0.75760   0.31530   0.01267  Uiso   1.00
H152   H     0.17610   0.84740   0.31150   0.01267  Uiso   1.00
H153   H     0.36200   0.88820   0.23070   0.01267  Uiso   1.00
H154   H     0.07090   0.21220   0.83770   0.01267  Uiso   1.00
H155   H     0.16140   0.25700   0.88950   0.01267  Uiso   1.00
H156   H     0.02700   0.92520   0.90200   0.01267  Uiso   1.00
H157   H     0.94150   0.88100   0.84950   0.01267  Uiso   1.00
H158   H     0.13560   0.99020   0.95230   0.01267  Uiso   1.00
H159   H     0.00970   0.01480   0.95290   0.01267  Uiso   1.00
H160   H     0.93380   0.21980   0.99060   0.01267  Uiso   1.00
H161   H     0.94720   0.13560   0.96360   0.01267  Uiso   1.00
H162   H     0.04020   0.26620   0.96430   0.01267  Uiso   1.00
H163   H     0.12970   0.38020   0.05640   0.01267  Uiso   1.00
H164   H     0.05120   0.35540   0.02310   0.01267  Uiso   1.00
H165   H     0.29370   0.24480   0.09550   0.01267  Uiso   1.00
H166   H     0.17850   0.28200   0.09290   0.01267  Uiso   1.00
H167   H     0.32060   0.36220   0.08240   0.01267  Uiso   1.00
H168   H     0.43490   0.11540   0.04530   0.01267  Uiso   1.00
H169   H     0.43240   0.20700   0.07180   0.01267  Uiso   1.00
H170   H     0.34540   0.00220   0.01240   0.01267  Uiso   1.00
H171   H     0.38070   0.06420   0.98040   0.01267  Uiso   1.00
H172   H     0.24520   0.95740   0.98270   0.01267  Uiso   1.00
H173   H     0.22880   0.96160   0.12920   0.01267  Uiso   1.00
H174   H     0.30470   0.85760   0.15780   0.01267  Uiso   1.00
H175   H     0.57420   0.89200   0.09290   0.01267  Uiso   1.00
H176   H     0.50860   0.00920   0.06550   0.01267  Uiso   1.00
H177   H     0.97260   0.46220   0.05510   0.01267  Uiso   1.00
H178   H     0.84380   0.53940   0.08130   0.01267  Uiso   1.00
H179   H     0.63540   0.24300   0.11830   0.01267  Uiso   1.00
H180   H     0.75630   0.16440   0.09030   0.01267  Uiso   1.00
H181   H     0.38330   0.35940   0.17570   0.01267  Uiso   1.00
H182   H     0.14240   0.28260   0.18140   0.01267  Uiso   1.00
H183   H     0.26350   0.55720   0.13280   0.01267  Uiso   1.00
H184   H     0.96510   0.33260   0.14020   0.01267  Uiso   1.00
H185   H     0.02080   0.46440   0.13830   0.01267  Uiso   1.00
H186   H     0.86690   0.19940   0.16000   0.01267  Uiso   1.00
H187   H     0.74850   0.14660   0.18300   0.01267  Uiso   1.00
H188   H     0.89080   0.16620   0.19410   0.01267  Uiso   1.00
H189   H     0.07250   0.69340   0.19320   0.01267  Uiso   1.00
H190   H     0.04000   0.62260   0.15960   0.01267  Uiso   1.00
H191   H     0.15800   0.63020   0.18150   0.01267  Uiso   1.00
H192   H     0.65210   0.37300   0.26330   0.01267  Uiso   1.00
H193   H     0.72300   0.50640   0.26530   0.01267  Uiso   1.00
H194   H     0.77900   0.43900   0.28560   0.01267  Uiso   1.00
H195   H     0.90970   0.64440   0.26090   0.01267  Uiso   1.00
H196   H     0.00800   0.70280   0.23370   0.01267  Uiso   1.00
H197   H     0.83850   0.82200   0.24400   0.01267  Uiso   1.00
H198   H     0.66710   0.80500   0.20490   0.01267  Uiso   1.00
H199   H     0.73340   0.53780   0.18880   0.01267  Uiso   1.00
H200   H     0.73280   0.16000   0.23360   0.01267  Uiso   1.00
H201   H     0.72190   0.23600   0.26340   0.01267  Uiso   1.00
H202   H     0.56690   0.24240   0.18470   0.01267  Uiso   1.00
H203   H     0.32870   0.15260   0.18850   0.01267  Uiso   1.00
H204   H     0.47380   0.11180   0.26930   0.01267  Uiso   1.00
C1     C     0.06890   0.01240   0.30369   0.01267  Uiso   1.00
C2     C     0.04110   0.04180   0.33772   0.01267  Uiso   1.00
C3     C     0.08990   0.15420   0.35042   0.01267  Uiso   1.00
C4     C     0.06350   0.18120   0.38144   0.01267  Uiso   1.00
C5     C     0.99000   0.09600   0.40042   0.01267  Uiso   1.00
C6     C     0.94500   0.98300   0.38883   0.01267  Uiso   1.00
C7     C     0.97050   0.95680   0.35739   0.01267  Uiso   1.00
C8     C     0.94410   0.04960   0.45502   0.01267  Uiso   1.00
C9     C     0.96390   0.11480   0.48783   0.01267  Uiso   1.00
C10    C     0.09260   0.18760   0.49873   0.01267  Uiso   1.00
C11    C     0.11180   0.24380   0.52928   0.01267  Uiso   1.00
C12    C     0.00460   0.22780   0.54896   0.01267  Uiso   1.00
C13    C     0.87700   0.15860   0.53760   0.01267  Uiso   1.00
C14    C     0.85610   0.10220   0.50679   0.01267  Uiso   1.00
C15    C     0.20900   0.20380   0.47734   0.01267  Uiso   1.00
C16    C     0.25040   0.32040   0.54111   0.01267  Uiso   1.00
C17    C     0.02730   0.28440   0.58309   0.01267  Uiso   1.00
C18    C     0.76040   0.13820   0.55853   0.01267  Uiso   1.00
C19    C     0.71370   0.02420   0.49442   0.01267  Uiso   1.00
C20    C     0.63550   0.99480   0.59435   0.01267  Uiso   1.00
C21    C     0.64900   0.94920   0.62178   0.01267  Uiso   1.00
C22    C     0.54100   0.88540   0.63863   0.01267  Uiso   1.00
C23    C     0.41510   0.86100   0.62794   0.01267  Uiso   1.00
C24    C     0.40210   0.90700   0.60059   0.01267  Uiso   1.00
C25    C     0.51170   0.97620   0.58376   0.01267  Uiso   1.00
C26    C     0.29630   0.77740   0.64454   0.01267  Uiso   1.00
C27    C     0.42700   0.30580   0.57045   0.01267  Uiso   1.00
C28    C     0.51340   0.41740   0.56777   0.01267  Uiso   1.00
C29    C     0.63700   0.46420   0.58388   0.01267  Uiso   1.00
C30    C     0.67330   0.40120   0.60333   0.01267  Uiso   1.00
C31    C     0.58490   0.28800   0.60543   0.01267  Uiso   1.00
C32    C     0.46450   0.24100   0.58893   0.01267  Uiso   1.00
C33    C     0.80120   0.45100   0.62289   0.01267  Uiso   1.00
C34    C     0.06130   0.39040   0.66790   0.01267  Uiso   1.00
C35    C     0.15160   0.34700   0.67098   0.01267  Uiso   1.00
C36    C     0.23500   0.49880   0.64438   0.01267  Uiso   1.00
C37    C     0.38660   0.40560   0.65158   0.01267  Uiso   1.00
C38    C     0.46020   0.41520   0.68318   0.01267  Uiso   1.00
C39    C     0.54400   0.52300   0.69727   0.01267  Uiso   1.00
C40    C     0.62060   0.53060   0.72460   0.01267  Uiso   1.00
C41    C     0.61230   0.43360   0.73800   0.01267  Uiso   1.00
C42    C     0.52490   0.32820   0.72467   0.01267  Uiso   1.00
C43    C     0.44680   0.31500   0.69658   0.01267  Uiso   1.00
C44    C     0.35460   0.19560   0.68208   0.01267  Uiso   1.00
C45    C     0.55600   0.62660   0.68146   0.01267  Uiso   1.00
C46    C     0.70220   0.43840   0.76555   0.01267  Uiso   1.00
C47    C     0.72330   0.64420   0.73774   0.01267  Uiso   1.00
C48    C     0.96570   0.76260   0.72820   0.01267  Uiso   1.00
C49    C     0.05040   0.75240   0.70646   0.01267  Uiso   1.00
C50    C     0.86920   0.60700   0.69758   0.01267  Uiso   1.00
C51    C     0.51180   0.22240   0.74013   0.01267  Uiso   1.00
C52    C     0.68560   0.20520   0.70210   0.01267  Uiso   1.00
C53    C     0.76690   0.15560   0.70442   0.01267  Uiso   1.00
C54    C     0.66590   0.13260   0.74866   0.01267  Uiso   1.00
C55    C     0.05650   0.98760   0.19631   0.01267  Uiso   1.00
C56    C     0.99930   0.95820   0.16228   0.01267  Uiso   1.00
C57    C     0.93570   0.84580   0.14958   0.01267  Uiso   1.00
C58    C     0.88230   0.81880   0.11856   0.01267  Uiso   1.00
C59    C     0.89400   0.90400   0.09958   0.01267  Uiso   1.00
C60    C     0.96200   0.01700   0.11117   0.01267  Uiso   1.00
C61    C     0.01370   0.04320   0.14261   0.01267  Uiso   1.00
C62    C     0.89450   0.95040   0.04498   0.01267  Uiso   1.00
C63    C     0.84910   0.88520   0.01217   0.01267  Uiso   1.00
C64    C     0.90500   0.81240   0.00127   0.01267  Uiso   1.00
C65    C     0.86800   0.75620   0.97072   0.01267  Uiso   1.00
C66    C     0.77680   0.77220   0.95104   0.01267  Uiso   1.00
C67    C     0.71840   0.84140   0.96240   0.01267  Uiso   1.00
C68    C     0.75390   0.89780   0.99321   0.01267  Uiso   1.00
C69    C     0.00520   0.79620   0.02266   0.01267  Uiso   1.00
C70    C     0.93000   0.67960   0.95889   0.01267  Uiso   1.00
C71    C     0.74290   0.71560   0.91691   0.01267  Uiso   1.00
C72    C     0.62220   0.86180   0.94147   0.01267  Uiso   1.00
C73    C     0.68950   0.97580   0.00558   0.01267  Uiso   1.00
C74    C     0.64070   0.00520   0.90565   0.01267  Uiso   1.00
C75    C     0.69980   0.05080   0.87822   0.01267  Uiso   1.00
C76    C     0.65560   0.11460   0.86137   0.01267  Uiso   1.00
C77    C     0.55410   0.13900   0.87206   0.01267  Uiso   1.00
C78    C     0.49510   0.09300   0.89941   0.01267  Uiso   1.00
C79    C     0.53550   0.02380   0.91624   0.01267  Uiso   1.00
C80    C     0.51890   0.22260   0.85546   0.01267  Uiso   1.00
C81    C     0.12120   0.69420   0.92955   0.01267  Uiso   1.00
C82    C     0.09600   0.58260   0.93223   0.01267  Uiso   1.00
C83    C     0.17280   0.53580   0.91612   0.01267  Uiso   1.00
C84    C     0.27210   0.59880   0.89667   0.01267  Uiso   1.00
C85    C     0.29690   0.71200   0.89457   0.01267  Uiso   1.00
C86    C     0.22350   0.75900   0.91107   0.01267  Uiso   1.00
C87    C     0.35020   0.54900   0.87711   0.01267  Uiso   1.00
C88    C     0.67090   0.60960   0.83210   0.01267  Uiso   1.00
C89    C     0.80460   0.65300   0.82902   0.01267  Uiso   1.00
C90    C     0.73620   0.50120   0.85562   0.01267  Uiso   1.00
C91    C     0.98100   0.59440   0.84842   0.01267  Uiso   1.00
C92    C     0.04500   0.58480   0.81682   0.01267  Uiso   1.00
C93    C     0.02100   0.47700   0.80273   0.01267  Uiso   1.00
C94    C     0.09000   0.46940   0.77540   0.01267  Uiso   1.00
C95    C     0.17870   0.56640   0.76200   0.01267  Uiso   1.00
C96    C     0.19670   0.67180   0.77533   0.01267  Uiso   1.00
C97    C     0.13180   0.68500   0.80342   0.01267  Uiso   1.00
C98    C     0.15900   0.80440   0.81792   0.01267  Uiso   1.00
C99    C     0.92940   0.37340   0.81854   0.01267  Uiso   1.00
C100   C     0.26380   0.56160   0.73445   0.01267  Uiso   1.00
C101   C     0.07910   0.35580   0.76226   0.01267  Uiso   1.00
C102   C     0.20310   0.23740   0.77180   0.01267  Uiso   1.00
C103   C     0.29800   0.24760   0.79354   0.01267  Uiso   1.00
C104   C     0.26220   0.39300   0.80242   0.01267  Uiso   1.00
C105   C     0.28940   0.77760   0.75987   0.01267  Uiso   1.00
C106   C     0.48040   0.79480   0.79790   0.01267  Uiso   1.00
C107   C     0.61130   0.84440   0.79558   0.01267  Uiso   1.00
C108   C     0.53330   0.86740   0.75134   0.01267  Uiso   1.00
C109   C     0.93110   0.98760   0.69631   0.01267  Uiso   1.00
C110   C     0.95890   0.95820   0.66228   0.01267  Uiso   1.00
C111   C     0.91010   0.84580   0.64958   0.01267  Uiso   1.00
C112   C     0.93650   0.81880   0.61856   0.01267  Uiso   1.00
C113   C     0.01000   0.90400   0.59958   0.01267  Uiso   1.00
C114   C     0.05500   0.01700   0.61117   0.01267  Uiso   1.00
C115   C     0.02950   0.04320   0.64261   0.01267  Uiso   1.00
C116   C     0.05590   0.95040   0.54498   0.01267  Uiso   1.00
C117   C     0.03610   0.88520   0.51217   0.01267  Uiso   1.00
C118   C     0.90740   0.81240   0.50127   0.01267  Uiso   1.00
C119   C     0.88820   0.75620   0.47072   0.01267  Uiso   1.00
C120   C     0.99540   0.77220   0.45104   0.01267  Uiso   1.00
C121   C     0.12300   0.84140   0.46240   0.01267  Uiso   1.00
C122   C     0.14390   0.89780   0.49321   0.01267  Uiso   1.00
C123   C     0.79100   0.79620   0.52266   0.01267  Uiso   1.00
C124   C     0.74960   0.67960   0.45889   0.01267  Uiso   1.00
C125   C     0.97270   0.71560   0.41691   0.01267  Uiso   1.00
C126   C     0.23960   0.86180   0.44147   0.01267  Uiso   1.00
C127   C     0.28630   0.97580   0.50558   0.01267  Uiso   1.00
C128   C     0.36450   0.00520   0.40565   0.01267  Uiso   1.00
C129   C     0.35100   0.05080   0.37822   0.01267  Uiso   1.00
C130   C     0.45900   0.11460   0.36137   0.01267  Uiso   1.00
C131   C     0.58490   0.13900   0.37206   0.01267  Uiso   1.00
C132   C     0.59790   0.09300   0.39941   0.01267  Uiso   1.00
C133   C     0.48830   0.02380   0.41624   0.01267  Uiso   1.00
C134   C     0.70370   0.22260   0.35546   0.01267  Uiso   1.00
C135   C     0.57300   0.69420   0.42955   0.01267  Uiso   1.00
C136   C     0.48660   0.58260   0.43223   0.01267  Uiso   1.00
C137   C     0.36300   0.53580   0.41612   0.01267  Uiso   1.00
C138   C     0.32670   0.59880   0.39667   0.01267  Uiso   1.00
C139   C     0.41510   0.71200   0.39457   0.01267  Uiso   1.00
C140   C     0.53550   0.75900   0.41107   0.01267  Uiso   1.00
C141   C     0.19880   0.54900   0.37711   0.01267  Uiso   1.00
C142   C     0.93870   0.60960   0.33210   0.01267  Uiso   1.00
C143   C     0.84840   0.65300   0.32902   0.01267  Uiso   1.00
C144   C     0.76500   0.50120   0.35562   0.01267  Uiso   1.00
C145   C     0.61340   0.59440   0.34842   0.01267  Uiso   1.00
C146   C     0.53980   0.58480   0.31682   0.01267  Uiso   1.00
C147   C     0.45600   0.47700   0.30273   0.01267  Uiso   1.00
C148   C     0.37940   0.46940   0.27540   0.01267  Uiso   1.00
C149   C     0.38770   0.56640   0.26200   0.01267  Uiso   1.00
C150   C     0.47510   0.67180   0.27533   0.01267  Uiso   1.00
C151   C     0.55320   0.68500   0.30342   0.01267  Uiso   1.00
C152   C     0.64540   0.80440   0.31792   0.01267  Uiso   1.00
C153   C     0.44400   0.37340   0.31854   0.01267  Uiso   1.00
C154   C     0.29780   0.56160   0.23445   0.01267  Uiso   1.00
C155   C     0.27670   0.35580   0.26226   0.01267  Uiso   1.00
C156   C     0.03430   0.23740   0.27180   0.01267  Uiso   1.00
C157   C     0.94960   0.24760   0.29354   0.01267  Uiso   1.00
C158   C     0.13080   0.39300   0.30242   0.01267  Uiso   1.00
C159   C     0.48820   0.77760   0.25987   0.01267  Uiso   1.00
C160   C     0.31440   0.79480   0.29790   0.01267  Uiso   1.00
C161   C     0.23310   0.84440   0.29558   0.01267  Uiso   1.00
C162   C     0.33410   0.86740   0.25134   0.01267  Uiso   1.00
C163   C     0.94350   0.01240   0.80369   0.01267  Uiso   1.00
C164   C     0.00070   0.04180   0.83772   0.01267  Uiso   1.00
C165   C     0.06430   0.15420   0.85042   0.01267  Uiso   1.00
C166   C     0.11770   0.18120   0.88144   0.01267  Uiso   1.00
C167   C     0.10600   0.09600   0.90042   0.01267  Uiso   1.00
C168   C     0.03800   0.98300   0.88883   0.01267  Uiso   1.00
C169   C     0.98630   0.95680   0.85739   0.01267  Uiso   1.00
C170   C     0.10550   0.04960   0.95502   0.01267  Uiso   1.00
C171   C     0.15090   0.11480   0.98783   0.01267  Uiso   1.00
C172   C     0.09500   0.18760   0.99873   0.01267  Uiso   1.00
C173   C     0.13200   0.24380   0.02928   0.01267  Uiso   1.00
C174   C     0.22320   0.22780   0.04896   0.01267  Uiso   1.00
C175   C     0.28160   0.15860   0.03760   0.01267  Uiso   1.00
C176   C     0.24610   0.10220   0.00679   0.01267  Uiso   1.00
C177   C     0.99480   0.20380   0.97734   0.01267  Uiso   1.00
C178   C     0.07000   0.32040   0.04111   0.01267  Uiso   1.00
C179   C     0.25710   0.28440   0.08309   0.01267  Uiso   1.00
C180   C     0.37780   0.13820   0.05853   0.01267  Uiso   1.00
C181   C     0.31050   0.02420   0.99442   0.01267  Uiso   1.00
C182   C     0.35930   0.99480   0.09435   0.01267  Uiso   1.00
C183   C     0.30020   0.94920   0.12178   0.01267  Uiso   1.00
C184   C     0.34440   0.88540   0.13863   0.01267  Uiso   1.00
C185   C     0.44590   0.86100   0.12794   0.01267  Uiso   1.00
C186   C     0.50490   0.90700   0.10059   0.01267  Uiso   1.00
C187   C     0.46450   0.97620   0.08376   0.01267  Uiso   1.00
C188   C     0.48110   0.77740   0.14454   0.01267  Uiso   1.00
C189   C     0.87880   0.30580   0.07045   0.01267  Uiso   1.00
C190   C     0.90400   0.41740   0.06777   0.01267  Uiso   1.00
C191   C     0.82720   0.46420   0.08388   0.01267  Uiso   1.00
C192   C     0.72790   0.40120   0.10333   0.01267  Uiso   1.00
C193   C     0.70310   0.28800   0.10543   0.01267  Uiso   1.00
C194   C     0.77650   0.24100   0.08893   0.01267  Uiso   1.00
C195   C     0.64980   0.45100   0.12289   0.01267  Uiso   1.00
C196   C     0.32910   0.39040   0.16790   0.01267  Uiso   1.00
C197   C     0.19540   0.34700   0.17098   0.01267  Uiso   1.00
C198   C     0.26380   0.49880   0.14438   0.01267  Uiso   1.00
C199   C     0.01900   0.40560   0.15158   0.01267  Uiso   1.00
C200   C     0.95500   0.41520   0.18318   0.01267  Uiso   1.00
C201   C     0.97900   0.52300   0.19727   0.01267  Uiso   1.00
C202   C     0.91000   0.53060   0.22460   0.01267  Uiso   1.00
C203   C     0.82130   0.43360   0.23800   0.01267  Uiso   1.00
C204   C     0.80330   0.32820   0.22467   0.01267  Uiso   1.00
C205   C     0.86820   0.31500   0.19658   0.01267  Uiso   1.00
C206   C     0.84100   0.19560   0.18208   0.01267  Uiso   1.00
C207   C     0.07060   0.62660   0.18146   0.01267  Uiso   1.00
C208   C     0.73620   0.43840   0.26555   0.01267  Uiso   1.00
C209   C     0.92090   0.64420   0.23774   0.01267  Uiso   1.00
C210   C     0.79690   0.76260   0.22820   0.01267  Uiso   1.00
C211   C     0.70200   0.75240   0.20646   0.01267  Uiso   1.00
C212   C     0.73780   0.60700   0.19758   0.01267  Uiso   1.00
C213   C     0.71060   0.22240   0.24013   0.01267  Uiso   1.00
C214   C     0.51960   0.20520   0.20210   0.01267  Uiso   1.00
C215   C     0.38870   0.15560   0.20442   0.01267  Uiso   1.00
C216   C     0.46670   0.13260   0.24866   0.01267  Uiso   1.00
N1     N     0.11592   0.48664   0.65155   0.01267  Uiso   1.00
N2     N     0.26222   0.41664   0.65570   0.01267  Uiso   1.00
N3     N     0.98943   0.65446   0.68724   0.01267  Uiso   1.00
N4     N     0.84977   0.66894   0.72222   0.01267  Uiso   1.00
N5     N     0.61951   0.19022   0.73073   0.01267  Uiso   1.00
N6     N     0.75473   0.10926   0.73368   0.01267  Uiso   1.00
N7     N     0.62928   0.51336   0.84845   0.01267  Uiso   1.00
N8     N     0.84558   0.58336   0.84430   0.01267  Uiso   1.00
N9     N     0.33497   0.34554   0.81276   0.01267  Uiso   1.00
N10    N     0.18083   0.33106   0.77778   0.01267  Uiso   1.00
N11    N     0.42929   0.80978   0.76927   0.01267  Uiso   1.00
N12    N     0.64547   0.89074   0.76632   0.01267  Uiso   1.00
N13    N     0.88408   0.51336   0.34845   0.01267  Uiso   1.00
N14    N     0.73778   0.58336   0.34430   0.01267  Uiso   1.00
N15    N     0.01057   0.34554   0.31276   0.01267  Uiso   1.00
N16    N     0.15023   0.33106   0.27778   0.01267  Uiso   1.00
N17    N     0.38049   0.80978   0.26927   0.01267  Uiso   1.00
N18    N     0.24527   0.89074   0.26632   0.01267  Uiso   1.00
N19    N     0.37072   0.48664   0.15155   0.01267  Uiso   1.00
N20    N     0.15442   0.41664   0.15570   0.01267  Uiso   1.00
N21    N     0.66503   0.65446   0.18724   0.01267  Uiso   1.00
N22    N     0.81917   0.66894   0.22222   0.01267  Uiso   1.00
N23    N     0.57071   0.19022   0.23073   0.01267  Uiso   1.00
N24    N     0.35453   0.10926   0.23368   0.01267  Uiso   1.00
O1     O     0.16992   0.08584   0.29121   0.01267  Uiso   1.00
O2     O     0.99888   0.91916   0.28957   0.01267  Uiso   1.00
O3     O     0.96876   0.13032   0.43119   0.01267  Uiso   1.00
O4     O     0.74920   0.05160   0.57786   0.01267  Uiso   1.00
O5     O     0.18783   0.72706   0.62694   0.01267  Uiso   1.00
O6     O     0.30990   0.76000   0.67305   0.01267  Uiso   1.00
O7     O     0.30285   0.25310   0.55635   0.01267  Uiso   1.00
O8     O     0.81268   0.40476   0.64662   0.01267  Uiso   1.00
O9     O     0.89195   0.54490   0.61453   0.01267  Uiso   1.00
O10    O     0.08408   0.91416   0.20879   0.01267  Uiso   1.00
O11    O     0.07972   0.08084   0.21043   0.01267  Uiso   1.00
O12    O     0.83844   0.86968   0.06881   0.01267  Uiso   1.00
O13    O     0.69760   0.94840   0.92214   0.01267  Uiso   1.00
O14    O     0.46077   0.27294   0.87306   0.01267  Uiso   1.00
O15    O     0.54990   0.24000   0.82695   0.01267  Uiso   1.00
O16    O     0.04975   0.74690   0.94365   0.01267  Uiso   1.00
O17    O     0.40792   0.59524   0.85338   0.01267  Uiso   1.00
O18    O     0.34705   0.45510   0.88547   0.01267  Uiso   1.00
O19    O     0.83008   0.91416   0.70879   0.01267  Uiso   1.00
O20    O     0.00112   0.08084   0.71043   0.01267  Uiso   1.00
O21    O     0.03124   0.86968   0.56881   0.01267  Uiso   1.00
O22    O     0.25080   0.94840   0.42214   0.01267  Uiso   1.00
O23    O     0.81217   0.27294   0.37306   0.01267  Uiso   1.00
O24    O     0.69010   0.24000   0.32695   0.01267  Uiso   1.00
O25    O     0.69715   0.74690   0.44365   0.01267  Uiso   1.00
O26    O     0.18732   0.59524   0.35338   0.01267  Uiso   1.00
O27    O     0.10805   0.45510   0.38547   0.01267  Uiso   1.00
O28    O     0.91592   0.08584   0.79121   0.01267  Uiso   1.00
O29    O     0.92028   0.91916   0.78957   0.01267  Uiso   1.00
O30    O     0.16156   0.13032   0.93119   0.01267  Uiso   1.00
O31    O     0.30240   0.05160   0.07786   0.01267  Uiso   1.00
O32    O     0.53923   0.72706   0.12694   0.01267  Uiso   1.00
O33    O     0.45010   0.76000   0.17305   0.01267  Uiso   1.00
O34    O     0.95025   0.25310   0.05635   0.01267  Uiso   1.00
O35    O     0.59208   0.40476   0.14662   0.01267  Uiso   1.00
O36    O     0.65295   0.54490   0.11453   0.01267  Uiso   1.00
