data_DENKOX_clean
_audit_creation_date              2014-07-02
_audit_creation_method            'Materials Studio'
_symmetry_space_group_name_H-M    'P1'
_symmetry_Int_Tables_number       1
_symmetry_cell_setting            triclinic
loop_
_symmetry_equiv_pos_as_xyz
  x,y,z
_cell_length_a                    10.2255
_cell_length_b                    13.0120
_cell_length_c                    13.5508
_cell_angle_alpha                 90.0000
_cell_angle_beta                  90.7490
_cell_angle_gamma                 90.0000
loop_
_atom_site_label
_atom_site_type_symbol
_atom_site_fract_x
_atom_site_fract_y
_atom_site_fract_z
_atom_site_U_iso_or_equiv
_atom_site_adp_type
_atom_site_occupancy
Co1    Co    0.85595   0.48224   0.23628   0.01267  Uiso   1.00
Co2    Co    0.13479   0.48967   0.26519   0.01267  Uiso   1.00
Co3    Co    0.14405   0.98224   0.76372   0.01267  Uiso   1.00
Co4    Co    0.86521   0.98967   0.73481   0.01267  Uiso   1.00
H1     H     0.13710   0.57970   0.56860   0.01267  Uiso   1.00
H2     H     0.07880   0.49000   0.63240   0.01267  Uiso   1.00
H3     H     0.11220   0.68100   0.69600   0.01267  Uiso   1.00
H4     H     0.03320   0.59600   0.75260   0.01267  Uiso   1.00
H5     H     0.84410   0.65420   0.70310   0.01267  Uiso   1.00
H6     H     0.87300   0.41260   0.57640   0.01267  Uiso   1.00
H7     H     0.82960   0.49510   0.65370   0.01267  Uiso   1.00
H8     H     0.75800   0.48820   0.55090   0.01267  Uiso   1.00
H9     H     0.93700   0.81470   0.50410   0.01267  Uiso   1.00
H10    H     0.05930   0.74310   0.51730   0.01267  Uiso   1.00
H11    H     0.96470   0.72840   0.42640   0.01267  Uiso   1.00
H12    H     0.72370   0.75770   0.53510   0.01267  Uiso   1.00
H13    H     0.73440   0.66900   0.45730   0.01267  Uiso   1.00
H14    H     0.69300   0.64410   0.56570   0.01267  Uiso   1.00
H15    H     0.05970   0.85270   0.24690   0.01267  Uiso   1.00
H16    H     0.11530   0.77160   0.17220   0.01267  Uiso   1.00
H17    H     0.14930   0.89820   0.06580   0.01267  Uiso   1.00
H18    H     0.08070   0.97750   0.13640   0.01267  Uiso   1.00
H19    H     0.88790   0.95820   0.06610   0.01267  Uiso   1.00
H20    H     0.83230   0.82960   0.29490   0.01267  Uiso   1.00
H21    H     0.82240   0.91400   0.21260   0.01267  Uiso   1.00
H22    H     0.72770   0.81930   0.20990   0.01267  Uiso   1.00
H23    H     0.73600   0.81000   0.94820   0.01267  Uiso   1.00
H24    H     0.70450   0.73390   0.03440   0.01267  Uiso   1.00
H25    H     0.69650   0.85290   0.05170   0.01267  Uiso   1.00
H26    H     0.94350   0.73520   0.92160   0.01267  Uiso   1.00
H27    H     0.05250   0.72700   0.00360   0.01267  Uiso   1.00
H28    H     0.93000   0.65470   0.00700   0.01267  Uiso   1.00
H29    H     0.59180   0.43750   0.36040   0.01267  Uiso   1.00
H30    H     0.43270   0.30640   0.32030   0.01267  Uiso   1.00
H31    H     0.72240   0.29000   0.13270   0.01267  Uiso   1.00
H32    H     0.40670   0.20110   0.14160   0.01267  Uiso   1.00
H33    H     0.54190   0.17050   0.09760   0.01267  Uiso   1.00
H34    H     0.62060   0.11870   0.32330   0.01267  Uiso   1.00
H35    H     0.61260   0.96190   0.40250   0.01267  Uiso   1.00
H36    H     0.35850   0.85990   0.20230   0.01267  Uiso   1.00
H37    H     0.35780   0.01360   0.12710   0.01267  Uiso   1.00
H38    H     0.41600   0.81060   0.42780   0.01267  Uiso   1.00
H39    H     0.55970   0.78290   0.39930   0.01267  Uiso   1.00
H40    H     0.24950   0.67960   0.37510   0.01267  Uiso   1.00
H41    H     0.42140   0.53570   0.16140   0.01267  Uiso   1.00
H42    H     0.56860   0.67400   0.21940   0.01267  Uiso   1.00
H43    H     0.86290   0.07970   0.43140   0.01267  Uiso   1.00
H44    H     0.92120   0.99000   0.36760   0.01267  Uiso   1.00
H45    H     0.88780   0.18100   0.30400   0.01267  Uiso   1.00
H46    H     0.96680   0.09600   0.24740   0.01267  Uiso   1.00
H47    H     0.15590   0.15420   0.29690   0.01267  Uiso   1.00
H48    H     0.12700   0.91260   0.42360   0.01267  Uiso   1.00
H49    H     0.17040   0.99510   0.34630   0.01267  Uiso   1.00
H50    H     0.24200   0.98820   0.44910   0.01267  Uiso   1.00
H51    H     0.06300   0.31470   0.49590   0.01267  Uiso   1.00
H52    H     0.94070   0.24310   0.48270   0.01267  Uiso   1.00
H53    H     0.03530   0.22840   0.57360   0.01267  Uiso   1.00
H54    H     0.27630   0.25770   0.46490   0.01267  Uiso   1.00
H55    H     0.26560   0.16900   0.54270   0.01267  Uiso   1.00
H56    H     0.30700   0.14410   0.43430   0.01267  Uiso   1.00
H57    H     0.94030   0.35270   0.75310   0.01267  Uiso   1.00
H58    H     0.88470   0.27160   0.82780   0.01267  Uiso   1.00
H59    H     0.85070   0.39820   0.93420   0.01267  Uiso   1.00
H60    H     0.91930   0.47750   0.86360   0.01267  Uiso   1.00
H61    H     0.11210   0.45820   0.93390   0.01267  Uiso   1.00
H62    H     0.16770   0.32960   0.70510   0.01267  Uiso   1.00
H63    H     0.17760   0.41400   0.78740   0.01267  Uiso   1.00
H64    H     0.27230   0.31930   0.79010   0.01267  Uiso   1.00
H65    H     0.26400   0.31000   0.05180   0.01267  Uiso   1.00
H66    H     0.29550   0.23390   0.96560   0.01267  Uiso   1.00
H67    H     0.30350   0.35290   0.94830   0.01267  Uiso   1.00
H68    H     0.05650   0.23520   0.07840   0.01267  Uiso   1.00
H69    H     0.94750   0.22700   0.99640   0.01267  Uiso   1.00
H70    H     0.07000   0.15470   0.99300   0.01267  Uiso   1.00
H71    H     0.40820   0.93750   0.63960   0.01267  Uiso   1.00
H72    H     0.56730   0.80640   0.67970   0.01267  Uiso   1.00
H73    H     0.27760   0.79000   0.86730   0.01267  Uiso   1.00
H74    H     0.59330   0.70110   0.85840   0.01267  Uiso   1.00
H75    H     0.45810   0.67050   0.90240   0.01267  Uiso   1.00
H76    H     0.37940   0.61870   0.67670   0.01267  Uiso   1.00
H77    H     0.38740   0.46190   0.59750   0.01267  Uiso   1.00
H78    H     0.64150   0.35990   0.79770   0.01267  Uiso   1.00
H79    H     0.64220   0.51360   0.87290   0.01267  Uiso   1.00
H80    H     0.58400   0.31060   0.57220   0.01267  Uiso   1.00
H81    H     0.44030   0.28290   0.60070   0.01267  Uiso   1.00
H82    H     0.75050   0.17960   0.62490   0.01267  Uiso   1.00
H83    H     0.57860   0.03570   0.83860   0.01267  Uiso   1.00
H84    H     0.43140   0.17400   0.78060   0.01267  Uiso   1.00
C1     C     0.96200   0.53220   0.43370   0.01267  Uiso   1.00
C2     C     0.93890   0.55820   0.54160   0.01267  Uiso   1.00
C3     C     0.06220   0.55840   0.60670   0.01267  Uiso   1.00
C4     C     0.04010   0.63280   0.69070   0.01267  Uiso   1.00
C5     C     0.91410   0.68920   0.66760   0.01267  Uiso   1.00
C6     C     0.88870   0.67150   0.55430   0.01267  Uiso   1.00
C7     C     0.91040   0.80050   0.69640   0.01267  Uiso   1.00
C8     C     0.84070   0.48130   0.58470   0.01267  Uiso   1.00
C9     C     0.96990   0.74630   0.49510   0.01267  Uiso   1.00
C10    C     0.74710   0.68700   0.52550   0.01267  Uiso   1.00
C11    C     0.90250   0.66740   0.19190   0.01267  Uiso   1.00
C12    C     0.91320   0.78240   0.16400   0.01267  Uiso   1.00
C13    C     0.05080   0.82540   0.18060   0.01267  Uiso   1.00
C14    C     0.07170   0.91130   0.10420   0.01267  Uiso   1.00
C15    C     0.95010   0.90850   0.03920   0.01267  Uiso   1.00
C16    C     0.88970   0.80030   0.05100   0.01267  Uiso   1.00
C17    C     0.97150   0.93710   0.93030   0.01267  Uiso   1.00
C18    C     0.81480   0.84190   0.22610   0.01267  Uiso   1.00
C19    C     0.74250   0.79920   0.01820   0.01267  Uiso   1.00
C20    C     0.96030   0.72230   0.99030   0.01267  Uiso   1.00
C21    C     0.59740   0.39120   0.30830   0.01267  Uiso   1.00
C22    C     0.51010   0.31890   0.28710   0.01267  Uiso   1.00
C23    C     0.66940   0.31100   0.18410   0.01267  Uiso   1.00
C24    C     0.49600   0.18250   0.15870   0.01267  Uiso   1.00
C25    C     0.49400   0.08330   0.21690   0.01267  Uiso   1.00
C26    C     0.56660   0.06700   0.29860   0.01267  Uiso   1.00
C27    C     0.56120   0.97270   0.34630   0.01267  Uiso   1.00
C28    C     0.48160   0.89500   0.31250   0.01267  Uiso   1.00
C29    C     0.40980   0.91260   0.22820   0.01267  Uiso   1.00
C30    C     0.41120   0.00300   0.18220   0.01267  Uiso   1.00
C31    C     0.47350   0.79850   0.37260   0.01267  Uiso   1.00
C32    C     0.31050   0.66040   0.32830   0.01267  Uiso   1.00
C33    C     0.40450   0.58200   0.21200   0.01267  Uiso   1.00
C34    C     0.48620   0.65880   0.24380   0.01267  Uiso   1.00
C35    C     0.03800   0.03220   0.56630   0.01267  Uiso   1.00
C36    C     0.06110   0.05820   0.45840   0.01267  Uiso   1.00
C37    C     0.93780   0.05840   0.39330   0.01267  Uiso   1.00
C38    C     0.95990   0.13280   0.30930   0.01267  Uiso   1.00
C39    C     0.08590   0.18920   0.33240   0.01267  Uiso   1.00
C40    C     0.11130   0.17150   0.44570   0.01267  Uiso   1.00
C41    C     0.08960   0.30050   0.30360   0.01267  Uiso   1.00
C42    C     0.15930   0.98130   0.41530   0.01267  Uiso   1.00
C43    C     0.03010   0.24630   0.50490   0.01267  Uiso   1.00
C44    C     0.25290   0.18700   0.47450   0.01267  Uiso   1.00
C45    C     0.09750   0.16740   0.80810   0.01267  Uiso   1.00
C46    C     0.08680   0.28240   0.83600   0.01267  Uiso   1.00
C47    C     0.94920   0.32540   0.81940   0.01267  Uiso   1.00
C48    C     0.92830   0.41130   0.89580   0.01267  Uiso   1.00
C49    C     0.04990   0.40850   0.96080   0.01267  Uiso   1.00
C50    C     0.11030   0.30030   0.94900   0.01267  Uiso   1.00
C51    C     0.02850   0.43710   0.06970   0.01267  Uiso   1.00
C52    C     0.18520   0.34190   0.77390   0.01267  Uiso   1.00
C53    C     0.25750   0.29920   0.98180   0.01267  Uiso   1.00
C54    C     0.03970   0.22230   0.00970   0.01267  Uiso   1.00
C55    C     0.40260   0.89120   0.69170   0.01267  Uiso   1.00
C56    C     0.48990   0.81890   0.71290   0.01267  Uiso   1.00
C57    C     0.33060   0.81100   0.81590   0.01267  Uiso   1.00
C58    C     0.50400   0.68250   0.84130   0.01267  Uiso   1.00
C59    C     0.50600   0.58330   0.78310   0.01267  Uiso   1.00
C60    C     0.43340   0.56700   0.70140   0.01267  Uiso   1.00
C61    C     0.43880   0.47270   0.65370   0.01267  Uiso   1.00
C62    C     0.51840   0.39500   0.68750   0.01267  Uiso   1.00
C63    C     0.59020   0.41260   0.77180   0.01267  Uiso   1.00
C64    C     0.58880   0.50300   0.81780   0.01267  Uiso   1.00
C65    C     0.52650   0.29850   0.62740   0.01267  Uiso   1.00
C66    C     0.68950   0.16040   0.67170   0.01267  Uiso   1.00
C67    C     0.59550   0.08200   0.78800   0.01267  Uiso   1.00
C68    C     0.51380   0.15880   0.75620   0.01267  Uiso   1.00
N1     N     0.69590   0.38740   0.24270   0.01267  Uiso   1.00
N2     N     0.55510   0.26610   0.20740   0.01267  Uiso   1.00
N3     N     0.42500   0.70800   0.31650   0.01267  Uiso   1.00
N4     N     0.29370   0.58500   0.26760   0.01267  Uiso   1.00
N5     N     0.30410   0.88740   0.75730   0.01267  Uiso   1.00
N6     N     0.44490   0.76610   0.79260   0.01267  Uiso   1.00
N7     N     0.57500   0.20800   0.68350   0.01267  Uiso   1.00
N8     N     0.70630   0.08500   0.73240   0.01267  Uiso   1.00
O1     O     0.86090   0.51660   0.38170   0.01267  Uiso   1.00
O2     O     0.07700   0.52860   0.40250   0.01267  Uiso   1.00
O3     O     0.80050   0.84600   0.69710   0.01267  Uiso   1.00
O4     O     0.01350   0.84780   0.71630   0.01267  Uiso   1.00
O5     O     0.79170   0.62550   0.18960   0.01267  Uiso   1.00
O6     O     0.00260   0.62120   0.21940   0.01267  Uiso   1.00
O7     O     0.87040   0.96000   0.88070   0.01267  Uiso   1.00
O8     O     0.08640   0.93690   0.89940   0.01267  Uiso   1.00
O9     O     0.13910   0.01660   0.61830   0.01267  Uiso   1.00
O10    O     0.92300   0.02860   0.59750   0.01267  Uiso   1.00
O11    O     0.19950   0.34600   0.30290   0.01267  Uiso   1.00
O12    O     0.98650   0.34780   0.28370   0.01267  Uiso   1.00
O13    O     0.20830   0.12550   0.81040   0.01267  Uiso   1.00
O14    O     0.99740   0.12120   0.78060   0.01267  Uiso   1.00
O15    O     0.12960   0.46000   0.11930   0.01267  Uiso   1.00
O16    O     0.91360   0.43690   0.10060   0.01267  Uiso   1.00
