data_DEYCAN_clean
_audit_creation_date              2014-07-02
_audit_creation_method            'Materials Studio'
_symmetry_space_group_name_H-M    'P1'
_symmetry_Int_Tables_number       1
_symmetry_cell_setting            triclinic
loop_
_symmetry_equiv_pos_as_xyz
  x,y,z
_cell_length_a                    7.4730
_cell_length_b                    16.8138
_cell_length_c                    16.8138
_cell_angle_alpha                 62.1553
_cell_angle_beta                  81.4802
_cell_angle_gamma                 98.5198
loop_
_atom_site_label
_atom_site_type_symbol
_atom_site_fract_x
_atom_site_fract_y
_atom_site_fract_z
_atom_site_U_iso_or_equiv
_atom_site_adp_type
_atom_site_occupancy
Mn1    Mn    0.79957   0.51067   0.90600   0.01267  Uiso   1.00
Mn2    Mn    0.70557   0.90600   0.58333   0.01267  Uiso   1.00
Mn3    Mn    0.28890   0.58333   0.51067   0.01267  Uiso   1.00
Mn4    Mn    0.20043   0.48933   0.09400   0.01267  Uiso   1.00
Mn5    Mn    0.29443   0.09400   0.41667   0.01267  Uiso   1.00
Mn6    Mn    0.71110   0.41667   0.48933   0.01267  Uiso   1.00
H1     H     0.42400   0.59620   0.87510   0.01267  Uiso   1.00
H2     H     0.04950   0.71630   0.73420   0.01267  Uiso   1.00
H3     H     0.01170   0.80370   0.66320   0.01267  Uiso   1.00
H4     H     0.38920   0.74100   0.76520   0.01267  Uiso   1.00
H5     H     0.52270   0.74450   0.97960   0.01267  Uiso   1.00
H6     H     0.69400   0.89880   0.88910   0.01267  Uiso   1.00
H7     H     0.01350   0.93290   0.83050   0.01267  Uiso   1.00
H8     H     0.16300   0.81460   0.85560   0.01267  Uiso   1.00
H9     H     0.29910   0.87510   0.52870   0.01267  Uiso   1.00
H10    H     0.78370   0.73420   0.54950   0.01267  Uiso   1.00
H11    H     0.67490   0.66320   0.53310   0.01267  Uiso   1.00
H12    H     0.15440   0.76520   0.49380   0.01267  Uiso   1.00
H13    H     0.50230   0.97960   0.27590   0.01267  Uiso   1.00
H14    H     0.58310   0.88910   0.21210   0.01267  Uiso   1.00
H15    H     0.84400   0.83050   0.23660   0.01267  Uiso   1.00
H16    H     0.01860   0.85560   0.32980   0.01267  Uiso   1.00
H17    H     0.82780   0.52870   0.59620   0.01267  Uiso   1.00
H18    H     0.33320   0.54950   0.71630   0.01267  Uiso   1.00
H19    H     0.20800   0.53310   0.80370   0.01267  Uiso   1.00
H20    H     0.64820   0.49380   0.74100   0.01267  Uiso   1.00
H21    H     0.77820   0.27590   0.74450   0.01267  Uiso   1.00
H22    H     0.79520   0.21210   0.89880   0.01267  Uiso   1.00
H23    H     0.08060   0.23660   0.93290   0.01267  Uiso   1.00
H24    H     0.34840   0.32980   0.81460   0.01267  Uiso   1.00
H25    H     0.57600   0.40380   0.12490   0.01267  Uiso   1.00
H26    H     0.95050   0.28370   0.26580   0.01267  Uiso   1.00
H27    H     0.98830   0.19630   0.33680   0.01267  Uiso   1.00
H28    H     0.61080   0.25900   0.23480   0.01267  Uiso   1.00
H29    H     0.47730   0.25550   0.02040   0.01267  Uiso   1.00
H30    H     0.30600   0.10120   0.11090   0.01267  Uiso   1.00
H31    H     0.98650   0.06710   0.16950   0.01267  Uiso   1.00
H32    H     0.83700   0.18540   0.14440   0.01267  Uiso   1.00
H33    H     0.70090   0.12490   0.47130   0.01267  Uiso   1.00
H34    H     0.21630   0.26580   0.45050   0.01267  Uiso   1.00
H35    H     0.32510   0.33680   0.46690   0.01267  Uiso   1.00
H36    H     0.84560   0.23480   0.50620   0.01267  Uiso   1.00
H37    H     0.49770   0.02040   0.72410   0.01267  Uiso   1.00
H38    H     0.41690   0.11090   0.78790   0.01267  Uiso   1.00
H39    H     0.15600   0.16950   0.76340   0.01267  Uiso   1.00
H40    H     0.98140   0.14440   0.67020   0.01267  Uiso   1.00
H41    H     0.17220   0.47130   0.40380   0.01267  Uiso   1.00
H42    H     0.66680   0.45050   0.28370   0.01267  Uiso   1.00
H43    H     0.79200   0.46690   0.19630   0.01267  Uiso   1.00
H44    H     0.35180   0.50620   0.25900   0.01267  Uiso   1.00
H45    H     0.22180   0.72410   0.25550   0.01267  Uiso   1.00
H46    H     0.20480   0.78790   0.10120   0.01267  Uiso   1.00
H47    H     0.91940   0.76340   0.06710   0.01267  Uiso   1.00
H48    H     0.65160   0.67020   0.18540   0.01267  Uiso   1.00
C1     C     0.78475   0.71884   0.74529   0.01267  Uiso   1.00
C2     C     0.50281   0.72221   0.76918   0.01267  Uiso   1.00
C3     C     0.93147   0.70759   0.93348   0.01267  Uiso   1.00
C4     C     0.74066   0.68698   0.97080   0.01267  Uiso   1.00
C5     C     0.65308   0.75845   0.95431   0.01267  Uiso   1.00
C6     C     0.75468   0.84991   0.90117   0.01267  Uiso   1.00
C7     C     0.94335   0.86998   0.86583   0.01267  Uiso   1.00
C8     C     0.03226   0.79978   0.88110   0.01267  Uiso   1.00
C9     C     0.03646   0.63395   0.94777   0.01267  Uiso   1.00
C10    C     0.62359   0.58988   0.02751   0.01267  Uiso   1.00
C11    C     0.53004   0.74529   0.53587   0.01267  Uiso   1.00
C12    C     0.27199   0.76918   0.50861   0.01267  Uiso   1.00
C13    C     0.86495   0.93348   0.35893   0.01267  Uiso   1.00
C14    C     0.71146   0.97080   0.34222   0.01267  Uiso   1.00
C15    C     0.60739   0.95431   0.28724   0.01267  Uiso   1.00
C16    C     0.65585   0.90117   0.24892   0.01267  Uiso   1.00
C17    C     0.80918   0.86583   0.26419   0.01267  Uiso   1.00
C18    C     0.91336   0.88110   0.31912   0.01267  Uiso   1.00
C19    C     0.98423   0.94777   0.41828   0.01267  Uiso   1.00
C20    C     0.65110   0.02751   0.38261   0.01267  Uiso   1.00
C21    C     0.06591   0.53587   0.71884   0.01267  Uiso   1.00
C22    C     0.78060   0.50861   0.72221   0.01267  Uiso   1.00
C23    C     0.22388   0.35893   0.70759   0.01267  Uiso   1.00
C24    C     0.05368   0.34222   0.68698   0.01267  Uiso   1.00
C25    C     0.89463   0.28724   0.75845   0.01267  Uiso   1.00
C26    C     0.90477   0.24892   0.84991   0.01267  Uiso   1.00
C27    C     0.07337   0.26419   0.86998   0.01267  Uiso   1.00
C28    C     0.23248   0.31912   0.79978   0.01267  Uiso   1.00
C29    C     0.40251   0.41828   0.63395   0.01267  Uiso   1.00
C30    C     0.03371   0.38261   0.58988   0.01267  Uiso   1.00
C31    C     0.21525   0.28116   0.25471   0.01267  Uiso   1.00
C32    C     0.49719   0.27779   0.23082   0.01267  Uiso   1.00
C33    C     0.06853   0.29241   0.06652   0.01267  Uiso   1.00
C34    C     0.25934   0.31302   0.02920   0.01267  Uiso   1.00
C35    C     0.34692   0.24155   0.04569   0.01267  Uiso   1.00
C36    C     0.24532   0.15009   0.09883   0.01267  Uiso   1.00
C37    C     0.05665   0.13002   0.13417   0.01267  Uiso   1.00
C38    C     0.96774   0.20022   0.11890   0.01267  Uiso   1.00
C39    C     0.96354   0.36605   0.05223   0.01267  Uiso   1.00
C40    C     0.37641   0.41012   0.97249   0.01267  Uiso   1.00
C41    C     0.46996   0.25471   0.46413   0.01267  Uiso   1.00
C42    C     0.72801   0.23082   0.49139   0.01267  Uiso   1.00
C43    C     0.13505   0.06652   0.64107   0.01267  Uiso   1.00
C44    C     0.28854   0.02920   0.65778   0.01267  Uiso   1.00
C45    C     0.39261   0.04569   0.71276   0.01267  Uiso   1.00
C46    C     0.34415   0.09883   0.75108   0.01267  Uiso   1.00
C47    C     0.19082   0.13417   0.73581   0.01267  Uiso   1.00
C48    C     0.08664   0.11890   0.68088   0.01267  Uiso   1.00
C49    C     0.01577   0.05223   0.58172   0.01267  Uiso   1.00
C50    C     0.34890   0.97249   0.61739   0.01267  Uiso   1.00
C51    C     0.93409   0.46413   0.28116   0.01267  Uiso   1.00
C52    C     0.21940   0.49139   0.27779   0.01267  Uiso   1.00
C53    C     0.77612   0.64107   0.29241   0.01267  Uiso   1.00
C54    C     0.94632   0.65778   0.31302   0.01267  Uiso   1.00
C55    C     0.10537   0.71276   0.24155   0.01267  Uiso   1.00
C56    C     0.09523   0.75108   0.15009   0.01267  Uiso   1.00
C57    C     0.92663   0.73581   0.13002   0.01267  Uiso   1.00
C58    C     0.76752   0.68088   0.20022   0.01267  Uiso   1.00
C59    C     0.59749   0.58172   0.36605   0.01267  Uiso   1.00
C60    C     0.96629   0.61739   0.41012   0.01267  Uiso   1.00
N1     N     0.51735   0.64119   0.83114   0.01267  Uiso   1.00
N2     N     0.69895   0.63692   0.81727   0.01267  Uiso   1.00
N3     N     0.66920   0.77469   0.71249   0.01267  Uiso   1.00
N4     N     0.96545   0.74284   0.70449   0.01267  Uiso   1.00
N5     N     0.34849   0.83114   0.52767   0.01267  Uiso   1.00
N6     N     0.51622   0.81727   0.54581   0.01267  Uiso   1.00
N7     N     0.38169   0.71249   0.51282   0.01267  Uiso   1.00
N8     N     0.66994   0.70449   0.55267   0.01267  Uiso   1.00
N9     N     0.87616   0.52767   0.64119   0.01267  Uiso   1.00
N10    N     0.06203   0.54581   0.63692   0.01267  Uiso   1.00
N11    N     0.89451   0.51282   0.77469   0.01267  Uiso   1.00
N12    N     0.22261   0.55267   0.74284   0.01267  Uiso   1.00
N13    N     0.48265   0.35881   0.16886   0.01267  Uiso   1.00
N14    N     0.30105   0.36308   0.18273   0.01267  Uiso   1.00
N15    N     0.33080   0.22531   0.28751   0.01267  Uiso   1.00
N16    N     0.03455   0.25716   0.29551   0.01267  Uiso   1.00
N17    N     0.65151   0.16886   0.47233   0.01267  Uiso   1.00
N18    N     0.48378   0.18273   0.45419   0.01267  Uiso   1.00
N19    N     0.61831   0.28751   0.48718   0.01267  Uiso   1.00
N20    N     0.33006   0.29551   0.44733   0.01267  Uiso   1.00
N21    N     0.12384   0.47233   0.35881   0.01267  Uiso   1.00
N22    N     0.93797   0.45419   0.36308   0.01267  Uiso   1.00
N23    N     0.10549   0.48718   0.22531   0.01267  Uiso   1.00
N24    N     0.77739   0.44733   0.25716   0.01267  Uiso   1.00
O1     O     0.05188   0.60746   0.88912   0.01267  Uiso   1.00
O2     O     0.10772   0.60831   0.01525   0.01267  Uiso   1.00
O3     O     0.69121   0.52551   0.02488   0.01267  Uiso   1.00
O4     O     0.46587   0.57529   0.07448   0.01267  Uiso   1.00
O5     O     0.94100   0.88912   0.50342   0.01267  Uiso   1.00
O6     O     0.12297   0.01525   0.37644   0.01267  Uiso   1.00
O7     O     0.71609   0.02488   0.44961   0.01267  Uiso   1.00
O8     O     0.54035   0.07448   0.35023   0.01267  Uiso   1.00
O9     O     0.44442   0.50342   0.60746   0.01267  Uiso   1.00
O10    O     0.49941   0.37644   0.60831   0.01267  Uiso   1.00
O11    O     0.16570   0.44961   0.52551   0.01267  Uiso   1.00
O12    O     0.89058   0.35023   0.57529   0.01267  Uiso   1.00
O13    O     0.94812   0.39254   0.11088   0.01267  Uiso   1.00
O14    O     0.89228   0.39169   0.98475   0.01267  Uiso   1.00
O15    O     0.30879   0.47449   0.97512   0.01267  Uiso   1.00
O16    O     0.53413   0.42471   0.92552   0.01267  Uiso   1.00
O17    O     0.05900   0.11088   0.49658   0.01267  Uiso   1.00
O18    O     0.87703   0.98475   0.62356   0.01267  Uiso   1.00
O19    O     0.28391   0.97512   0.55039   0.01267  Uiso   1.00
O20    O     0.45965   0.92552   0.64977   0.01267  Uiso   1.00
O21    O     0.55558   0.49658   0.39254   0.01267  Uiso   1.00
O22    O     0.50059   0.62356   0.39169   0.01267  Uiso   1.00
O23    O     0.83430   0.55039   0.47449   0.01267  Uiso   1.00
O24    O     0.10942   0.64977   0.42471   0.01267  Uiso   1.00
