data_DEYDOA_clean
_audit_creation_date              2014-07-02
_audit_creation_method            'Materials Studio'
_symmetry_space_group_name_H-M    'P1'
_symmetry_Int_Tables_number       1
_symmetry_cell_setting            triclinic
loop_
_symmetry_equiv_pos_as_xyz
  x,y,z
_cell_length_a                    7.1990
_cell_length_b                    7.5690
_cell_length_c                    9.5410
_cell_angle_alpha                 90.0000
_cell_angle_beta                  100.3000
_cell_angle_gamma                 90.0000
loop_
_atom_site_label
_atom_site_type_symbol
_atom_site_fract_x
_atom_site_fract_y
_atom_site_fract_z
_atom_site_U_iso_or_equiv
_atom_site_adp_type
_atom_site_occupancy
Cd1    Cd    0.00000   0.00000   0.00000   0.01267  Uiso   1.00
Ni1    Ni    0.50000   0.50000   0.00000   0.01267  Uiso   1.00
H1     H     0.00814   0.11610   0.28422   0.01267  Uiso   1.00
H2     H     0.66997   0.11610   0.20155   0.01267  Uiso   1.00
H3     H     0.79100   0.11610   0.45835   0.01267  Uiso   1.00
H4     H     0.44535   0.11610   0.37177   0.01267  Uiso   1.00
H5     H     0.99186   0.11610   0.71578   0.01267  Uiso   1.00
H6     H     0.33003   0.11610   0.79845   0.01267  Uiso   1.00
H7     H     0.20900   0.11610   0.54165   0.01267  Uiso   1.00
H8     H     0.55465   0.11610   0.62823   0.01267  Uiso   1.00
H9     H     0.99186   0.88390   0.71578   0.01267  Uiso   1.00
H10    H     0.33003   0.88390   0.79845   0.01267  Uiso   1.00
H11    H     0.20900   0.88390   0.54165   0.01267  Uiso   1.00
H12    H     0.55465   0.88390   0.62823   0.01267  Uiso   1.00
H13    H     0.00814   0.88390   0.28422   0.01267  Uiso   1.00
H14    H     0.66997   0.88390   0.20155   0.01267  Uiso   1.00
H15    H     0.79100   0.88390   0.45835   0.01267  Uiso   1.00
H16    H     0.44535   0.88390   0.37177   0.01267  Uiso   1.00
C1     C     0.66500   0.67320   0.95820   0.01267  Uiso   1.00
C2     C     0.33500   0.67320   0.04180   0.01267  Uiso   1.00
C3     C     0.33500   0.32680   0.04180   0.01267  Uiso   1.00
C4     C     0.66500   0.32680   0.95820   0.01267  Uiso   1.00
C5     C     0.74050   0.00000   0.25230   0.01267  Uiso   1.00
C6     C     0.72140   0.00000   0.40680   0.01267  Uiso   1.00
C7     C     0.51400   0.00000   0.42420   0.01267  Uiso   1.00
C8     C     0.25950   0.00000   0.74770   0.01267  Uiso   1.00
C9     C     0.27860   0.00000   0.59320   0.01267  Uiso   1.00
C10    C     0.48600   0.00000   0.57580   0.01267  Uiso   1.00
N1     N     0.76870   0.77890   0.93640   0.01267  Uiso   1.00
N2     N     0.23130   0.77890   0.06360   0.01267  Uiso   1.00
N3     N     0.23130   0.22110   0.06360   0.01267  Uiso   1.00
N4     N     0.76870   0.22110   0.93640   0.01267  Uiso   1.00
N5     N     0.94060   0.00000   0.23080   0.01267  Uiso   1.00
N6     N     0.05940   0.00000   0.76920   0.01267  Uiso   1.00
