data_DIBXAO_clean
_audit_creation_date              2014-07-02
_audit_creation_method            'Materials Studio'
_symmetry_space_group_name_H-M    'P1'
_symmetry_Int_Tables_number       1
_symmetry_cell_setting            triclinic
loop_
_symmetry_equiv_pos_as_xyz
  x,y,z
_cell_length_a                    14.0530
_cell_length_b                    14.0530
_cell_length_c                    17.9017
_cell_angle_alpha                 66.8895
_cell_angle_beta                  66.8895
_cell_angle_gamma                 89.9999
loop_
_atom_site_label
_atom_site_type_symbol
_atom_site_fract_x
_atom_site_fract_y
_atom_site_fract_z
_atom_site_U_iso_or_equiv
_atom_site_adp_type
_atom_site_occupancy
Co1    Co    0.92575   0.65908   0.82354   0.01267  Uiso   1.00
Co2    Co    0.75071   0.51738   0.82354   0.01267  Uiso   1.00
Co3    Co    0.74929   0.84092   0.17646   0.01267  Uiso   1.00
Co4    Co    0.57425   0.98262   0.17646   0.01267  Uiso   1.00
Co5    Co    0.84092   0.74929   0.67646   0.01267  Uiso   1.00
Co6    Co    0.98262   0.57425   0.67646   0.01267  Uiso   1.00
Co7    Co    0.51738   0.75071   0.32354   0.01267  Uiso   1.00
Co8    Co    0.65908   0.92575   0.32354   0.01267  Uiso   1.00
C1     C     0.83611   0.58171   0.03698   0.01267  Uiso   1.00
C2     C     0.78660   0.63010   0.14960   0.01267  Uiso   1.00
C3     C     0.70320   0.70470   0.87320   0.01267  Uiso   1.00
C4     C     0.62691   0.38131   0.03698   0.01267  Uiso   1.00
C5     C     0.56380   0.22030   0.14960   0.01267  Uiso   1.00
C6     C     0.92360   0.42210   0.87320   0.01267  Uiso   1.00
C7     C     0.87309   0.91829   0.96302   0.01267  Uiso   1.00
C8     C     0.93620   0.86990   0.85040   0.01267  Uiso   1.00
C9     C     0.57640   0.79530   0.12680   0.01267  Uiso   1.00
C10    C     0.66389   0.11869   0.96302   0.01267  Uiso   1.00
C11    C     0.71340   0.27970   0.85040   0.01267  Uiso   1.00
C12    C     0.79680   0.07790   0.12680   0.01267  Uiso   1.00
C13    C     0.91829   0.87309   0.46302   0.01267  Uiso   1.00
C14    C     0.86990   0.93620   0.35040   0.01267  Uiso   1.00
C15    C     0.79530   0.57640   0.62680   0.01267  Uiso   1.00
C16    C     0.11869   0.66389   0.46302   0.01267  Uiso   1.00
C17    C     0.27970   0.71340   0.35040   0.01267  Uiso   1.00
C18    C     0.07790   0.79680   0.62680   0.01267  Uiso   1.00
C19    C     0.38131   0.62691   0.53698   0.01267  Uiso   1.00
C20    C     0.22030   0.56380   0.64960   0.01267  Uiso   1.00
C21    C     0.42210   0.92360   0.37320   0.01267  Uiso   1.00
C22    C     0.58171   0.83611   0.53698   0.01267  Uiso   1.00
C23    C     0.63010   0.78660   0.64960   0.01267  Uiso   1.00
C24    C     0.70470   0.70320   0.37320   0.01267  Uiso   1.00
N1     N     0.86349   0.59559   0.96422   0.01267  Uiso   1.00
N2     N     0.80802   0.55592   0.12176   0.01267  Uiso   1.00
N3     N     0.94902   0.81112   0.81996   0.01267  Uiso   1.00
N4     N     0.67229   0.44019   0.96422   0.01267  Uiso   1.00
N5     N     0.57022   0.32232   0.12176   0.01267  Uiso   1.00
N6     N     0.73102   0.36892   0.81996   0.01267  Uiso   1.00
N7     N     0.82771   0.90441   0.03578   0.01267  Uiso   1.00
N8     N     0.92978   0.94408   0.87824   0.01267  Uiso   1.00
N9     N     0.76898   0.68888   0.18004   0.01267  Uiso   1.00
N10    N     0.63651   0.05981   0.03578   0.01267  Uiso   1.00
N11    N     0.69198   0.17768   0.87824   0.01267  Uiso   1.00
N12    N     0.55098   0.13108   0.18004   0.01267  Uiso   1.00
N13    N     0.90441   0.82771   0.53578   0.01267  Uiso   1.00
N14    N     0.94408   0.92978   0.37824   0.01267  Uiso   1.00
N15    N     0.68888   0.76898   0.68004   0.01267  Uiso   1.00
N16    N     0.05981   0.63651   0.53578   0.01267  Uiso   1.00
N17    N     0.17768   0.69198   0.37824   0.01267  Uiso   1.00
N18    N     0.13108   0.55098   0.68004   0.01267  Uiso   1.00
N19    N     0.44019   0.67229   0.46422   0.01267  Uiso   1.00
N20    N     0.32232   0.57022   0.62176   0.01267  Uiso   1.00
N21    N     0.36892   0.73102   0.31996   0.01267  Uiso   1.00
N22    N     0.59559   0.86349   0.46422   0.01267  Uiso   1.00
N23    N     0.55592   0.80802   0.62176   0.01267  Uiso   1.00
N24    N     0.81112   0.94902   0.31996   0.01267  Uiso   1.00
O1     O     0.78331   0.66901   0.81498   0.01267  Uiso   1.00
O2     O     0.90171   0.51601   0.81498   0.01267  Uiso   1.00
O3     O     0.59829   0.83099   0.18502   0.01267  Uiso   1.00
O4     O     0.71669   0.98399   0.18502   0.01267  Uiso   1.00
O5     O     0.83099   0.59829   0.68502   0.01267  Uiso   1.00
O6     O     0.98399   0.71669   0.68502   0.01267  Uiso   1.00
O7     O     0.51601   0.90171   0.31498   0.01267  Uiso   1.00
O8     O     0.66901   0.78331   0.31498   0.01267  Uiso   1.00
Co9    Co    0.15908   0.25071   0.32354   0.01267  Uiso   1.00
Co10   Co    0.01738   0.42575   0.32354   0.01267  Uiso   1.00
Co11   Co    0.48262   0.24929   0.67646   0.01267  Uiso   1.00
Co12   Co    0.34092   0.07425   0.67646   0.01267  Uiso   1.00
Co13   Co    0.07425   0.34092   0.17646   0.01267  Uiso   1.00
Co14   Co    0.24929   0.48262   0.17646   0.01267  Uiso   1.00
Co15   Co    0.25071   0.15908   0.82354   0.01267  Uiso   1.00
Co16   Co    0.42575   0.01738   0.82354   0.01267  Uiso   1.00
C25    C     0.08171   0.12691   0.53698   0.01267  Uiso   1.00
C26    C     0.13010   0.06380   0.64960   0.01267  Uiso   1.00
C27    C     0.20470   0.42360   0.37320   0.01267  Uiso   1.00
C28    C     0.88131   0.33611   0.53698   0.01267  Uiso   1.00
C29    C     0.72030   0.28660   0.64960   0.01267  Uiso   1.00
C30    C     0.92210   0.20320   0.37320   0.01267  Uiso   1.00
C31    C     0.61869   0.37309   0.46302   0.01267  Uiso   1.00
C32    C     0.77970   0.43620   0.35040   0.01267  Uiso   1.00
C33    C     0.57790   0.07640   0.62680   0.01267  Uiso   1.00
C34    C     0.41829   0.16389   0.46302   0.01267  Uiso   1.00
C35    C     0.36990   0.21340   0.35040   0.01267  Uiso   1.00
C36    C     0.29530   0.29680   0.62680   0.01267  Uiso   1.00
C37    C     0.16389   0.41829   0.96302   0.01267  Uiso   1.00
C38    C     0.21340   0.36990   0.85040   0.01267  Uiso   1.00
C39    C     0.29680   0.29530   0.12680   0.01267  Uiso   1.00
C40    C     0.37309   0.61869   0.96302   0.01267  Uiso   1.00
C41    C     0.43620   0.77970   0.85040   0.01267  Uiso   1.00
C42    C     0.07640   0.57790   0.12680   0.01267  Uiso   1.00
C43    C     0.12691   0.08171   0.03698   0.01267  Uiso   1.00
C44    C     0.06380   0.13010   0.14960   0.01267  Uiso   1.00
C45    C     0.42360   0.20470   0.87320   0.01267  Uiso   1.00
C46    C     0.33611   0.88131   0.03698   0.01267  Uiso   1.00
C47    C     0.28660   0.72030   0.14960   0.01267  Uiso   1.00
C48    C     0.20320   0.92210   0.87320   0.01267  Uiso   1.00
N25    N     0.09559   0.17229   0.46422   0.01267  Uiso   1.00
N26    N     0.05592   0.07022   0.62176   0.01267  Uiso   1.00
N27    N     0.31112   0.23102   0.31996   0.01267  Uiso   1.00
N28    N     0.94019   0.36349   0.46422   0.01267  Uiso   1.00
N29    N     0.82232   0.30802   0.62176   0.01267  Uiso   1.00
N30    N     0.86892   0.44902   0.31996   0.01267  Uiso   1.00
N31    N     0.55981   0.32771   0.53578   0.01267  Uiso   1.00
N32    N     0.67768   0.42978   0.37824   0.01267  Uiso   1.00
N33    N     0.63108   0.26898   0.68004   0.01267  Uiso   1.00
N34    N     0.40441   0.13651   0.53578   0.01267  Uiso   1.00
N35    N     0.44408   0.19198   0.37824   0.01267  Uiso   1.00
N36    N     0.18888   0.05098   0.68004   0.01267  Uiso   1.00
N37    N     0.13651   0.40441   0.03578   0.01267  Uiso   1.00
N38    N     0.19198   0.44408   0.87824   0.01267  Uiso   1.00
N39    N     0.05098   0.18888   0.18004   0.01267  Uiso   1.00
N40    N     0.32771   0.55981   0.03578   0.01267  Uiso   1.00
N41    N     0.42978   0.67768   0.87824   0.01267  Uiso   1.00
N42    N     0.26898   0.63108   0.18004   0.01267  Uiso   1.00
N43    N     0.17229   0.09559   0.96422   0.01267  Uiso   1.00
N44    N     0.07022   0.05592   0.12176   0.01267  Uiso   1.00
N45    N     0.23102   0.31112   0.81996   0.01267  Uiso   1.00
N46    N     0.36349   0.94019   0.96422   0.01267  Uiso   1.00
N47    N     0.30802   0.82232   0.12176   0.01267  Uiso   1.00
N48    N     0.44902   0.86892   0.81996   0.01267  Uiso   1.00
O9     O     0.16901   0.40171   0.31498   0.01267  Uiso   1.00
O10    O     0.01601   0.28331   0.31498   0.01267  Uiso   1.00
O11    O     0.48399   0.09829   0.68502   0.01267  Uiso   1.00
O12    O     0.33099   0.21669   0.68502   0.01267  Uiso   1.00
O13    O     0.21669   0.33099   0.18502   0.01267  Uiso   1.00
O14    O     0.09829   0.48399   0.18502   0.01267  Uiso   1.00
O15    O     0.40171   0.16901   0.81498   0.01267  Uiso   1.00
O16    O     0.28331   0.01601   0.81498   0.01267  Uiso   1.00
