data_DOYLIM_clean
_audit_creation_date              2014-07-02
_audit_creation_method            'Materials Studio'
_symmetry_space_group_name_H-M    'P1'
_symmetry_Int_Tables_number       1
_symmetry_cell_setting            triclinic
loop_
_symmetry_equiv_pos_as_xyz
  x,y,z
_cell_length_a                    7.3090
_cell_length_b                    9.6021
_cell_length_c                    15.2670
_cell_angle_alpha                 90.0000
_cell_angle_beta                  90.0000
_cell_angle_gamma                 110.1720
loop_
_atom_site_label
_atom_site_type_symbol
_atom_site_fract_x
_atom_site_fract_y
_atom_site_fract_z
_atom_site_U_iso_or_equiv
_atom_site_adp_type
_atom_site_occupancy
Cd1    Cd    0.99622   0.97388   0.75000   0.01267  Uiso   1.00
Cd2    Cd    0.00378   0.02612   0.25000   0.01267  Uiso   1.00
Ni1    Ni    0.50000   0.00000   0.00000   0.01267  Uiso   1.00
Ni2    Ni    0.50000   0.00000   0.50000   0.01267  Uiso   1.00
H1     H     0.17460   0.27040   0.80760   0.01267  Uiso   1.00
H2     H     0.49010   0.46530   0.80760   0.01267  Uiso   1.00
H3     H     0.79670   0.41200   0.80760   0.01267  Uiso   1.00
H4     H     0.95610   0.62700   0.80760   0.01267  Uiso   1.00
H5     H     0.70560   0.71610   0.80760   0.01267  Uiso   1.00
H6     H     0.82540   0.72960   0.30760   0.01267  Uiso   1.00
H7     H     0.50990   0.53470   0.30760   0.01267  Uiso   1.00
H8     H     0.20330   0.58800   0.30760   0.01267  Uiso   1.00
H9     H     0.04390   0.37300   0.30760   0.01267  Uiso   1.00
H10    H     0.29440   0.28390   0.30760   0.01267  Uiso   1.00
H11    H     0.82540   0.72960   0.19240   0.01267  Uiso   1.00
H12    H     0.50990   0.53470   0.19240   0.01267  Uiso   1.00
H13    H     0.20330   0.58800   0.19240   0.01267  Uiso   1.00
H14    H     0.04390   0.37300   0.19240   0.01267  Uiso   1.00
H15    H     0.29440   0.28390   0.19240   0.01267  Uiso   1.00
H16    H     0.17460   0.27040   0.69240   0.01267  Uiso   1.00
H17    H     0.49010   0.46530   0.69240   0.01267  Uiso   1.00
H18    H     0.79670   0.41200   0.69240   0.01267  Uiso   1.00
H19    H     0.95610   0.62700   0.69240   0.01267  Uiso   1.00
H20    H     0.70560   0.71610   0.69240   0.01267  Uiso   1.00
C1     C     0.68350   0.01680   0.91150   0.01267  Uiso   1.00
C2     C     0.30370   0.95210   0.91480   0.01267  Uiso   1.00
C3     C     0.31650   0.98320   0.41150   0.01267  Uiso   1.00
C4     C     0.69630   0.04790   0.41480   0.01267  Uiso   1.00
C5     C     0.31650   0.98320   0.08850   0.01267  Uiso   1.00
C6     C     0.69630   0.04790   0.08520   0.01267  Uiso   1.00
C7     C     0.68350   0.01680   0.58850   0.01267  Uiso   1.00
C8     C     0.30370   0.95210   0.58520   0.01267  Uiso   1.00
C9     C     0.41410   0.25210   0.75000   0.01267  Uiso   1.00
C10    C     0.53800   0.41100   0.75000   0.01267  Uiso   1.00
C11    C     0.73800   0.45500   0.75000   0.01267  Uiso   1.00
C12    C     0.86590   0.61190   0.75000   0.01267  Uiso   1.00
C13    C     0.58590   0.74790   0.25000   0.01267  Uiso   1.00
C14    C     0.46200   0.58900   0.25000   0.01267  Uiso   1.00
C15    C     0.26200   0.54500   0.25000   0.01267  Uiso   1.00
C16    C     0.13410   0.38810   0.25000   0.01267  Uiso   1.00
N1     N     0.79310   0.02430   0.85770   0.01267  Uiso   1.00
N2     N     0.18690   0.92700   0.86270   0.01267  Uiso   1.00
N3     N     0.20690   0.97570   0.35770   0.01267  Uiso   1.00
N4     N     0.81310   0.07300   0.36270   0.01267  Uiso   1.00
N5     N     0.20690   0.97570   0.14230   0.01267  Uiso   1.00
N6     N     0.81310   0.07300   0.13730   0.01267  Uiso   1.00
N7     N     0.79310   0.02430   0.64230   0.01267  Uiso   1.00
N8     N     0.18690   0.92700   0.63730   0.01267  Uiso   1.00
N9     N     0.20740   0.21740   0.75000   0.01267  Uiso   1.00
N10    N     0.79660   0.73260   0.75000   0.01267  Uiso   1.00
N11    N     0.79260   0.78260   0.25000   0.01267  Uiso   1.00
N12    N     0.20340   0.26740   0.25000   0.01267  Uiso   1.00
