data_DUCGEO_clean
_audit_creation_date              2014-07-02
_audit_creation_method            'Materials Studio'
_symmetry_space_group_name_H-M    'P1'
_symmetry_Int_Tables_number       1
_symmetry_cell_setting            triclinic
loop_
_symmetry_equiv_pos_as_xyz
  x,y,z
_cell_length_a                    12.4000
_cell_length_b                    15.3000
_cell_length_c                    20.0900
_cell_angle_alpha                 90.0000
_cell_angle_beta                  103.7000
_cell_angle_gamma                 90.0000
loop_
_atom_site_label
_atom_site_type_symbol
_atom_site_fract_x
_atom_site_fract_y
_atom_site_fract_z
_atom_site_U_iso_or_equiv
_atom_site_adp_type
_atom_site_occupancy
Cu1    Cu    0.15053   0.78490   0.78186   0.01267  Uiso   1.00
Cu2    Cu    0.84947   0.28490   0.71814   0.01267  Uiso   1.00
Cu3    Cu    0.84947   0.21510   0.21814   0.01267  Uiso   1.00
Cu4    Cu    0.15053   0.71510   0.28186   0.01267  Uiso   1.00
H1     H     0.26630   0.80560   0.94240   0.01267  Uiso   1.00
H2     H     0.28440   0.60830   0.82550   0.01267  Uiso   1.00
H3     H     0.41010   0.75580   0.05180   0.01267  Uiso   1.00
H4     H     0.39280   0.65500   0.05940   0.01267  Uiso   1.00
H5     H     0.54100   0.55370   0.05530   0.01267  Uiso   1.00
H6     H     0.72220   0.52770   0.05200   0.01267  Uiso   1.00
H7     H     0.76470   0.78070   0.02100   0.01267  Uiso   1.00
H8     H     0.58370   0.80770   0.02270   0.01267  Uiso   1.00
H9     H     0.87990   0.57900   0.00570   0.01267  Uiso   1.00
H10    H     0.90390   0.67960   0.00580   0.01267  Uiso   1.00
H11    H     0.10640   0.52290   0.21070   0.01267  Uiso   1.00
H12    H     0.97670   0.74440   0.13980   0.01267  Uiso   1.00
H13    H     0.04420   0.64680   0.86810   0.01267  Uiso   1.00
H14    H     0.89910   0.84570   0.76610   0.01267  Uiso   1.00
H15    H     0.71630   0.79920   0.85880   0.01267  Uiso   1.00
H16    H     0.70060   0.82220   0.78090   0.01267  Uiso   1.00
H17    H     0.63050   0.70660   0.69390   0.01267  Uiso   1.00
H18    H     0.53390   0.57600   0.66790   0.01267  Uiso   1.00
H19    H     0.53920   0.54270   0.86440   0.01267  Uiso   1.00
H20    H     0.63750   0.67010   0.89110   0.01267  Uiso   1.00
H21    H     0.43180   0.45500   0.70190   0.01267  Uiso   1.00
H22    H     0.42940   0.44450   0.77940   0.01267  Uiso   1.00
H23    H     0.62920   0.39910   0.67480   0.01267  Uiso   1.00
H24    H     0.72370   0.26040   0.83800   0.01267  Uiso   1.00
H25    H     0.73370   0.30560   0.55760   0.01267  Uiso   1.00
H26    H     0.71560   0.10830   0.67450   0.01267  Uiso   1.00
H27    H     0.58990   0.25580   0.44820   0.01267  Uiso   1.00
H28    H     0.60720   0.15500   0.44060   0.01267  Uiso   1.00
H29    H     0.45900   0.05370   0.44470   0.01267  Uiso   1.00
H30    H     0.27780   0.02770   0.44800   0.01267  Uiso   1.00
H31    H     0.23530   0.28070   0.47900   0.01267  Uiso   1.00
H32    H     0.41630   0.30770   0.47730   0.01267  Uiso   1.00
H33    H     0.12010   0.07900   0.49430   0.01267  Uiso   1.00
H34    H     0.09610   0.17960   0.49420   0.01267  Uiso   1.00
H35    H     0.89360   0.02290   0.28930   0.01267  Uiso   1.00
H36    H     0.02330   0.24440   0.36020   0.01267  Uiso   1.00
H37    H     0.95580   0.14680   0.63190   0.01267  Uiso   1.00
H38    H     0.10090   0.34570   0.73390   0.01267  Uiso   1.00
H39    H     0.28370   0.29920   0.64120   0.01267  Uiso   1.00
H40    H     0.29940   0.32220   0.71910   0.01267  Uiso   1.00
H41    H     0.36950   0.20660   0.80610   0.01267  Uiso   1.00
H42    H     0.46610   0.07600   0.83210   0.01267  Uiso   1.00
H43    H     0.46080   0.04270   0.63560   0.01267  Uiso   1.00
H44    H     0.36250   0.17010   0.60890   0.01267  Uiso   1.00
H45    H     0.56820   0.95500   0.79810   0.01267  Uiso   1.00
H46    H     0.57060   0.94450   0.72060   0.01267  Uiso   1.00
H47    H     0.37080   0.89910   0.82520   0.01267  Uiso   1.00
H48    H     0.27630   0.76040   0.66200   0.01267  Uiso   1.00
H49    H     0.73370   0.19440   0.05760   0.01267  Uiso   1.00
H50    H     0.71560   0.39170   0.17450   0.01267  Uiso   1.00
H51    H     0.58990   0.24420   0.94820   0.01267  Uiso   1.00
H52    H     0.60720   0.34500   0.94060   0.01267  Uiso   1.00
H53    H     0.45900   0.44630   0.94470   0.01267  Uiso   1.00
H54    H     0.27780   0.47230   0.94800   0.01267  Uiso   1.00
H55    H     0.23530   0.21930   0.97900   0.01267  Uiso   1.00
H56    H     0.41630   0.19230   0.97730   0.01267  Uiso   1.00
H57    H     0.12010   0.42100   0.99430   0.01267  Uiso   1.00
H58    H     0.09610   0.32040   0.99420   0.01267  Uiso   1.00
H59    H     0.89360   0.47710   0.78930   0.01267  Uiso   1.00
H60    H     0.02330   0.25560   0.86020   0.01267  Uiso   1.00
H61    H     0.95580   0.35320   0.13190   0.01267  Uiso   1.00
H62    H     0.10090   0.15430   0.23390   0.01267  Uiso   1.00
H63    H     0.28370   0.20080   0.14120   0.01267  Uiso   1.00
H64    H     0.29940   0.17780   0.21910   0.01267  Uiso   1.00
H65    H     0.36950   0.29340   0.30610   0.01267  Uiso   1.00
H66    H     0.46610   0.42400   0.33210   0.01267  Uiso   1.00
H67    H     0.46080   0.45730   0.13560   0.01267  Uiso   1.00
H68    H     0.36250   0.32990   0.10890   0.01267  Uiso   1.00
H69    H     0.56820   0.54500   0.29810   0.01267  Uiso   1.00
H70    H     0.57060   0.55550   0.22060   0.01267  Uiso   1.00
H71    H     0.37080   0.60090   0.32520   0.01267  Uiso   1.00
H72    H     0.27630   0.73960   0.16200   0.01267  Uiso   1.00
H73    H     0.26630   0.69440   0.44240   0.01267  Uiso   1.00
H74    H     0.28440   0.89170   0.32550   0.01267  Uiso   1.00
H75    H     0.41010   0.74420   0.55180   0.01267  Uiso   1.00
H76    H     0.39280   0.84500   0.55940   0.01267  Uiso   1.00
H77    H     0.54100   0.94630   0.55530   0.01267  Uiso   1.00
H78    H     0.72220   0.97230   0.55200   0.01267  Uiso   1.00
H79    H     0.76470   0.71930   0.52100   0.01267  Uiso   1.00
H80    H     0.58370   0.69230   0.52270   0.01267  Uiso   1.00
H81    H     0.87990   0.92100   0.50570   0.01267  Uiso   1.00
H82    H     0.90390   0.82040   0.50580   0.01267  Uiso   1.00
H83    H     0.10640   0.97710   0.71070   0.01267  Uiso   1.00
H84    H     0.97670   0.75560   0.63980   0.01267  Uiso   1.00
H85    H     0.04420   0.85320   0.36810   0.01267  Uiso   1.00
H86    H     0.89910   0.65430   0.26610   0.01267  Uiso   1.00
H87    H     0.71630   0.70080   0.35880   0.01267  Uiso   1.00
H88    H     0.70060   0.67780   0.28090   0.01267  Uiso   1.00
H89    H     0.63050   0.79340   0.19390   0.01267  Uiso   1.00
H90    H     0.53390   0.92400   0.16790   0.01267  Uiso   1.00
H91    H     0.53920   0.95730   0.36440   0.01267  Uiso   1.00
H92    H     0.63750   0.82990   0.39110   0.01267  Uiso   1.00
H93    H     0.43180   0.04500   0.20190   0.01267  Uiso   1.00
H94    H     0.42940   0.05550   0.27940   0.01267  Uiso   1.00
H95    H     0.62920   0.10090   0.17480   0.01267  Uiso   1.00
H96    H     0.72370   0.23960   0.33800   0.01267  Uiso   1.00
C1     C     0.28470   0.75230   0.92570   0.01267  Uiso   1.00
C2     C     0.29580   0.64480   0.86360   0.01267  Uiso   1.00
C3     C     0.41980   0.69900   0.03260   0.01267  Uiso   1.00
C4     C     0.54100   0.68370   0.03710   0.01267  Uiso   1.00
C5     C     0.58530   0.59980   0.04740   0.01267  Uiso   1.00
C6     C     0.69440   0.58440   0.04600   0.01267  Uiso   1.00
C7     C     0.76270   0.65130   0.03600   0.01267  Uiso   1.00
C8     C     0.71940   0.73460   0.02750   0.01267  Uiso   1.00
C9     C     0.61070   0.75080   0.02820   0.01267  Uiso   1.00
C10    C     0.87910   0.63280   0.03110   0.01267  Uiso   1.00
C11    C     0.06420   0.56450   0.18220   0.01267  Uiso   1.00
C12    C     0.99530   0.68550   0.14460   0.01267  Uiso   1.00
C13    C     0.99030   0.68750   0.84850   0.01267  Uiso   1.00
C14    C     0.91380   0.79550   0.79290   0.01267  Uiso   1.00
C15    C     0.72350   0.77670   0.81490   0.01267  Uiso   1.00
C16    C     0.64930   0.69900   0.79590   0.01267  Uiso   1.00
C17    C     0.61470   0.67260   0.72880   0.01267  Uiso   1.00
C18    C     0.55560   0.59460   0.71320   0.01267  Uiso   1.00
C19    C     0.52930   0.54530   0.76360   0.01267  Uiso   1.00
C20    C     0.55920   0.57470   0.82990   0.01267  Uiso   1.00
C21    C     0.61830   0.65100   0.84590   0.01267  Uiso   1.00
C22    C     0.47700   0.45640   0.74850   0.01267  Uiso   1.00
C23    C     0.63400   0.37360   0.71740   0.01267  Uiso   1.00
C24    C     0.68370   0.29920   0.80570   0.01267  Uiso   1.00
C25    C     0.71530   0.25230   0.57430   0.01267  Uiso   1.00
C26    C     0.70420   0.14480   0.63640   0.01267  Uiso   1.00
C27    C     0.58020   0.19900   0.46740   0.01267  Uiso   1.00
C28    C     0.45900   0.18370   0.46290   0.01267  Uiso   1.00
C29    C     0.41470   0.09980   0.45260   0.01267  Uiso   1.00
C30    C     0.30560   0.08440   0.45400   0.01267  Uiso   1.00
C31    C     0.23730   0.15130   0.46400   0.01267  Uiso   1.00
C32    C     0.28060   0.23460   0.47250   0.01267  Uiso   1.00
C33    C     0.38930   0.25080   0.47180   0.01267  Uiso   1.00
C34    C     0.12090   0.13280   0.46890   0.01267  Uiso   1.00
C35    C     0.93580   0.06450   0.31780   0.01267  Uiso   1.00
C36    C     0.00470   0.18550   0.35540   0.01267  Uiso   1.00
C37    C     0.00970   0.18750   0.65150   0.01267  Uiso   1.00
C38    C     0.08620   0.29550   0.70710   0.01267  Uiso   1.00
C39    C     0.27650   0.27670   0.68510   0.01267  Uiso   1.00
C40    C     0.35070   0.19900   0.70410   0.01267  Uiso   1.00
C41    C     0.38530   0.17260   0.77120   0.01267  Uiso   1.00
C42    C     0.44440   0.09460   0.78680   0.01267  Uiso   1.00
C43    C     0.47070   0.04530   0.73640   0.01267  Uiso   1.00
C44    C     0.44080   0.07470   0.67010   0.01267  Uiso   1.00
C45    C     0.38170   0.15100   0.65410   0.01267  Uiso   1.00
C46    C     0.52300   0.95640   0.75150   0.01267  Uiso   1.00
C47    C     0.36600   0.87360   0.78260   0.01267  Uiso   1.00
C48    C     0.31630   0.79920   0.69430   0.01267  Uiso   1.00
C49    C     0.71530   0.24770   0.07430   0.01267  Uiso   1.00
C50    C     0.70420   0.35520   0.13640   0.01267  Uiso   1.00
C51    C     0.58020   0.30100   0.96740   0.01267  Uiso   1.00
C52    C     0.45900   0.31630   0.96290   0.01267  Uiso   1.00
C53    C     0.41470   0.40020   0.95260   0.01267  Uiso   1.00
C54    C     0.30560   0.41560   0.95400   0.01267  Uiso   1.00
C55    C     0.23730   0.34870   0.96400   0.01267  Uiso   1.00
C56    C     0.28060   0.26540   0.97250   0.01267  Uiso   1.00
C57    C     0.38930   0.24920   0.97180   0.01267  Uiso   1.00
C58    C     0.12090   0.36720   0.96890   0.01267  Uiso   1.00
C59    C     0.93580   0.43550   0.81780   0.01267  Uiso   1.00
C60    C     0.00470   0.31450   0.85540   0.01267  Uiso   1.00
C61    C     0.00970   0.31250   0.15150   0.01267  Uiso   1.00
C62    C     0.08620   0.20450   0.20710   0.01267  Uiso   1.00
C63    C     0.27650   0.22330   0.18510   0.01267  Uiso   1.00
C64    C     0.35070   0.30100   0.20410   0.01267  Uiso   1.00
C65    C     0.38530   0.32740   0.27120   0.01267  Uiso   1.00
C66    C     0.44440   0.40540   0.28680   0.01267  Uiso   1.00
C67    C     0.47070   0.45470   0.23640   0.01267  Uiso   1.00
C68    C     0.44080   0.42530   0.17010   0.01267  Uiso   1.00
C69    C     0.38170   0.34900   0.15410   0.01267  Uiso   1.00
C70    C     0.52300   0.54360   0.25150   0.01267  Uiso   1.00
C71    C     0.36600   0.62640   0.28260   0.01267  Uiso   1.00
C72    C     0.31630   0.70080   0.19430   0.01267  Uiso   1.00
C73    C     0.28470   0.74770   0.42570   0.01267  Uiso   1.00
C74    C     0.29580   0.85520   0.36360   0.01267  Uiso   1.00
C75    C     0.41980   0.80100   0.53260   0.01267  Uiso   1.00
C76    C     0.54100   0.81630   0.53710   0.01267  Uiso   1.00
C77    C     0.58530   0.90020   0.54740   0.01267  Uiso   1.00
C78    C     0.69440   0.91560   0.54600   0.01267  Uiso   1.00
C79    C     0.76270   0.84870   0.53600   0.01267  Uiso   1.00
C80    C     0.71940   0.76540   0.52750   0.01267  Uiso   1.00
C81    C     0.61070   0.74920   0.52820   0.01267  Uiso   1.00
C82    C     0.87910   0.86720   0.53110   0.01267  Uiso   1.00
C83    C     0.06420   0.93550   0.68220   0.01267  Uiso   1.00
C84    C     0.99530   0.81450   0.64460   0.01267  Uiso   1.00
C85    C     0.99030   0.81250   0.34850   0.01267  Uiso   1.00
C86    C     0.91380   0.70450   0.29290   0.01267  Uiso   1.00
C87    C     0.72350   0.72330   0.31490   0.01267  Uiso   1.00
C88    C     0.64930   0.80100   0.29590   0.01267  Uiso   1.00
C89    C     0.61470   0.82740   0.22880   0.01267  Uiso   1.00
C90    C     0.55560   0.90540   0.21320   0.01267  Uiso   1.00
C91    C     0.52930   0.95470   0.26360   0.01267  Uiso   1.00
C92    C     0.55920   0.92530   0.32990   0.01267  Uiso   1.00
C93    C     0.61830   0.84900   0.34590   0.01267  Uiso   1.00
C94    C     0.47700   0.04360   0.24850   0.01267  Uiso   1.00
C95    C     0.63400   0.12640   0.21740   0.01267  Uiso   1.00
C96    C     0.68370   0.20080   0.30570   0.01267  Uiso   1.00
N1     N     0.24420   0.72270   0.86280   0.01267  Uiso   1.00
N2     N     0.36270   0.62490   0.92200   0.01267  Uiso   1.00
N3     N     0.35460   0.69520   0.96110   0.01267  Uiso   1.00
N4     N     0.06410   0.65020   0.19880   0.01267  Uiso   1.00
N5     N     0.99880   0.54520   0.12180   0.01267  Uiso   1.00
N6     N     0.95730   0.62450   0.09870   0.01267  Uiso   1.00
N7     N     0.01120   0.75540   0.81010   0.01267  Uiso   1.00
N8     N     0.88820   0.68360   0.85570   0.01267  Uiso   1.00
N9     N     0.84100   0.75380   0.81930   0.01267  Uiso   1.00
N10    N     0.71050   0.31750   0.74670   0.01267  Uiso   1.00
N11    N     0.59460   0.34180   0.81390   0.01267  Uiso   1.00
N12    N     0.56490   0.38880   0.75700   0.01267  Uiso   1.00
N13    N     0.75580   0.22270   0.63720   0.01267  Uiso   1.00
N14    N     0.63730   0.12490   0.57800   0.01267  Uiso   1.00
N15    N     0.64540   0.19520   0.53890   0.01267  Uiso   1.00
N16    N     0.93590   0.15020   0.30120   0.01267  Uiso   1.00
N17    N     0.00120   0.04520   0.37820   0.01267  Uiso   1.00
N18    N     0.04270   0.12450   0.40130   0.01267  Uiso   1.00
N19    N     0.98880   0.25540   0.68990   0.01267  Uiso   1.00
N20    N     0.11180   0.18360   0.64430   0.01267  Uiso   1.00
N21    N     0.15900   0.25380   0.68070   0.01267  Uiso   1.00
N22    N     0.28950   0.81750   0.75330   0.01267  Uiso   1.00
N23    N     0.40540   0.84180   0.68610   0.01267  Uiso   1.00
N24    N     0.43510   0.88880   0.74300   0.01267  Uiso   1.00
N25    N     0.75580   0.27730   0.13720   0.01267  Uiso   1.00
N26    N     0.63730   0.37510   0.07800   0.01267  Uiso   1.00
N27    N     0.64540   0.30480   0.03890   0.01267  Uiso   1.00
N28    N     0.93590   0.34980   0.80120   0.01267  Uiso   1.00
N29    N     0.00120   0.45480   0.87820   0.01267  Uiso   1.00
N30    N     0.04270   0.37550   0.90130   0.01267  Uiso   1.00
N31    N     0.98880   0.24460   0.18990   0.01267  Uiso   1.00
N32    N     0.11180   0.31640   0.14430   0.01267  Uiso   1.00
N33    N     0.15900   0.24620   0.18070   0.01267  Uiso   1.00
N34    N     0.28950   0.68250   0.25330   0.01267  Uiso   1.00
N35    N     0.40540   0.65820   0.18610   0.01267  Uiso   1.00
N36    N     0.43510   0.61120   0.24300   0.01267  Uiso   1.00
N37    N     0.24420   0.77730   0.36280   0.01267  Uiso   1.00
N38    N     0.36270   0.87510   0.42200   0.01267  Uiso   1.00
N39    N     0.35460   0.80480   0.46110   0.01267  Uiso   1.00
N40    N     0.06410   0.84980   0.69880   0.01267  Uiso   1.00
N41    N     0.99880   0.95480   0.62180   0.01267  Uiso   1.00
N42    N     0.95730   0.87550   0.59870   0.01267  Uiso   1.00
N43    N     0.01120   0.74460   0.31010   0.01267  Uiso   1.00
N44    N     0.88820   0.81640   0.35570   0.01267  Uiso   1.00
N45    N     0.84100   0.74620   0.31930   0.01267  Uiso   1.00
N46    N     0.71050   0.18250   0.24670   0.01267  Uiso   1.00
N47    N     0.59460   0.15820   0.31390   0.01267  Uiso   1.00
N48    N     0.56490   0.11120   0.25700   0.01267  Uiso   1.00
