data_EBETOW_clean
_audit_creation_date              2014-07-02
_audit_creation_method            'Materials Studio'
_symmetry_space_group_name_H-M    'P1'
_symmetry_Int_Tables_number       1
_symmetry_cell_setting            triclinic
loop_
_symmetry_equiv_pos_as_xyz
  x,y,z
_cell_length_a                    15.2770
_cell_length_b                    17.1350
_cell_length_c                    17.1499
_cell_angle_alpha                 119.9710
_cell_angle_beta                  96.1648
_cell_angle_gamma                 90.0000
loop_
_atom_site_label
_atom_site_type_symbol
_atom_site_fract_x
_atom_site_fract_y
_atom_site_fract_z
_atom_site_U_iso_or_equiv
_atom_site_adp_type
_atom_site_occupancy
Cd1    Cd    0.32965   0.02686   0.35932   0.01267  Uiso   1.00
Cd2    Cd    0.67035   0.97314   0.64068   0.01267  Uiso   1.00
Cd3    Cd    0.50000  -0.00000   0.50000   0.01267  Uiso   1.00
H1     H     0.34620   0.73770   0.13420   0.01267  Uiso   1.00
H2     H     0.33550   0.58260   0.04280   0.01267  Uiso   1.00
H3     H     0.45710   0.55670   0.24820   0.01267  Uiso   1.00
H4     H     0.46990   0.71240   0.33900   0.01267  Uiso   1.00
H5     H     0.27470   0.27610   0.65880   0.01267  Uiso   1.00
H6     H     0.29470   0.35790   0.81660   0.01267  Uiso   1.00
H7     H     0.42320   0.15400   0.82140   0.01267  Uiso   1.00
H8     H     0.39880   0.06950   0.66300   0.01267  Uiso   1.00
H9     H     0.38650   0.06260   0.10080   0.01267  Uiso   1.00
H10    H     0.39420   0.14340   0.02460   0.01267  Uiso   1.00
H11    H     0.28950   0.35540   0.22740   0.01267  Uiso   1.00
H12    H     0.28180   0.27460   0.30360   0.01267  Uiso   1.00
H13    H     0.38680   0.44010   0.95540   0.01267  Uiso   1.00
H14    H     0.35440   0.20030   0.94520   0.01267  Uiso   1.00
H15    H     0.37100   0.43310   0.18620   0.01267  Uiso   1.00
H16    H     0.65380   0.26230   0.86580   0.01267  Uiso   1.00
H17    H     0.66450   0.41740   0.95720   0.01267  Uiso   1.00
H18    H     0.54290   0.44330   0.75180   0.01267  Uiso   1.00
H19    H     0.53010   0.28760   0.66100   0.01267  Uiso   1.00
H20    H     0.72530   0.72390   0.34120   0.01267  Uiso   1.00
H21    H     0.70530   0.64210   0.18340   0.01267  Uiso   1.00
H22    H     0.57680   0.84600   0.17860   0.01267  Uiso   1.00
H23    H     0.60120   0.93050   0.33700   0.01267  Uiso   1.00
H24    H     0.61350   0.93740   0.89920   0.01267  Uiso   1.00
H25    H     0.60580   0.85660   0.97540   0.01267  Uiso   1.00
H26    H     0.71050   0.64460   0.77260   0.01267  Uiso   1.00
H27    H     0.71820   0.72540   0.69640   0.01267  Uiso   1.00
H28    H     0.61320   0.55990   0.04460   0.01267  Uiso   1.00
H29    H     0.64560   0.79970   0.05480   0.01267  Uiso   1.00
H30    H     0.62900   0.56690   0.81380   0.01267  Uiso   1.00
C1     C     0.41110   0.84010   0.31000   0.01267  Uiso   1.00
C2     C     0.40750   0.73980   0.24740   0.01267  Uiso   1.00
C3     C     0.36830   0.70070   0.15760   0.01267  Uiso   1.00
C4     C     0.36190   0.60870   0.10380   0.01267  Uiso   1.00
C5     C     0.39280   0.55230   0.13600   0.01267  Uiso   1.00
C6     C     0.43370   0.59310   0.22460   0.01267  Uiso   1.00
C7     C     0.44100   0.68590   0.27880   0.01267  Uiso   1.00
C8     C     0.32290   0.11400   0.54420   0.01267  Uiso   1.00
C9     C     0.33380   0.16420   0.64540   0.01267  Uiso   1.00
C10    C     0.30360   0.25050   0.69180   0.01267  Uiso   1.00
C11    C     0.31570   0.29910   0.78560   0.01267  Uiso   1.00
C12    C     0.35770   0.26340   0.83440   0.01267  Uiso   1.00
C13    C     0.39130   0.17800   0.78840   0.01267  Uiso   1.00
C14    C     0.37780   0.12830   0.69420   0.01267  Uiso   1.00
C15    C     0.33750   0.10940   0.26000   0.01267  Uiso   1.00
C16    C     0.33340   0.16090   0.20920   0.01267  Uiso   1.00
C17    C     0.36680   0.12200   0.12640   0.01267  Uiso   1.00
C18    C     0.37140   0.17000   0.08120   0.01267  Uiso   1.00
C19    C     0.34260   0.25700   0.11880   0.01267  Uiso   1.00
C20    C     0.30920   0.29600   0.20180   0.01267  Uiso   1.00
C21    C     0.30460   0.24800   0.24700   0.01267  Uiso   1.00
C22    C     0.38200   0.45250   0.08080   0.01267  Uiso   1.00
C23    C     0.37950   0.40690   0.98540   0.01267  Uiso   1.00
C24    C     0.36630   0.31280   0.93500   0.01267  Uiso   1.00
C25    C     0.36030   0.26440   0.97940   0.01267  Uiso   1.00
C26    C     0.36280   0.30880   0.07500   0.01267  Uiso   1.00
C27    C     0.37180   0.40230   0.12240   0.01267  Uiso   1.00
C28    C     0.58890   0.15990   0.69000   0.01267  Uiso   1.00
C29    C     0.59250   0.26020   0.75260   0.01267  Uiso   1.00
C30    C     0.63170   0.29930   0.84240   0.01267  Uiso   1.00
C31    C     0.63810   0.39130   0.89620   0.01267  Uiso   1.00
C32    C     0.60720   0.44770   0.86400   0.01267  Uiso   1.00
C33    C     0.56630   0.40690   0.77540   0.01267  Uiso   1.00
C34    C     0.55900   0.31410   0.72120   0.01267  Uiso   1.00
C35    C     0.67710   0.88600   0.45580   0.01267  Uiso   1.00
C36    C     0.66620   0.83580   0.35460   0.01267  Uiso   1.00
C37    C     0.69640   0.74950   0.30820   0.01267  Uiso   1.00
C38    C     0.68430   0.70090   0.21440   0.01267  Uiso   1.00
C39    C     0.64230   0.73660   0.16560   0.01267  Uiso   1.00
C40    C     0.60870   0.82200   0.21160   0.01267  Uiso   1.00
C41    C     0.62220   0.87170   0.30580   0.01267  Uiso   1.00
C42    C     0.66250   0.89060   0.74000   0.01267  Uiso   1.00
C43    C     0.66660   0.83910   0.79080   0.01267  Uiso   1.00
C44    C     0.63320   0.87800   0.87360   0.01267  Uiso   1.00
C45    C     0.62860   0.83000   0.91880   0.01267  Uiso   1.00
C46    C     0.65740   0.74300   0.88120   0.01267  Uiso   1.00
C47    C     0.69080   0.70400   0.79820   0.01267  Uiso   1.00
C48    C     0.69540   0.75200   0.75300   0.01267  Uiso   1.00
C49    C     0.61800   0.54750   0.91920   0.01267  Uiso   1.00
C50    C     0.62050   0.59310   0.01460   0.01267  Uiso   1.00
C51    C     0.63370   0.68720   0.06500   0.01267  Uiso   1.00
C52    C     0.63970   0.73560   0.02060   0.01267  Uiso   1.00
C53    C     0.63720   0.69120   0.92500   0.01267  Uiso   1.00
C54    C     0.62820   0.59770   0.87760   0.01267  Uiso   1.00
O1     O     0.35040   0.02980   0.22160   0.01267  Uiso   1.00
O2     O     0.31340   0.14940   0.33900   0.01267  Uiso   1.00
O3     O     0.37740   0.88836   0.28192   0.01267  Uiso   1.00
O4     O     0.44810   0.86686   0.38992   0.01267  Uiso   1.00
O5     O     0.28380   0.14600   0.50100   0.01267  Uiso   1.00
O6     O     0.35720   0.03661   0.50282   0.01267  Uiso   1.00
O7     O     0.64960   0.97020   0.77840   0.01267  Uiso   1.00
O8     O     0.68660   0.85060   0.66100   0.01267  Uiso   1.00
O9     O     0.62260   0.11164   0.71808   0.01267  Uiso   1.00
O10    O     0.55190   0.13314   0.61008   0.01267  Uiso   1.00
O11    O     0.71620   0.85400   0.49900   0.01267  Uiso   1.00
O12    O     0.64280   0.96339   0.49718   0.01267  Uiso   1.00
Cd4    Cd    0.17035   0.66754   0.64068   0.01267  Uiso   1.00
Cd5    Cd    0.82965   0.33246   0.35932   0.01267  Uiso   1.00
Cd6    Cd    0.00000   0.50000   0.50000   0.01267  Uiso   1.00
H31    H     0.15380   0.60350   0.86580   0.01267  Uiso   1.00
H32    H     0.16450   0.53980   0.95720   0.01267  Uiso   1.00
H33    H     0.04290   0.30850   0.75180   0.01267  Uiso   1.00
H34    H     0.03010   0.37340   0.66100   0.01267  Uiso   1.00
H35    H     0.22530   0.61730   0.34120   0.01267  Uiso   1.00
H36    H     0.20530   0.54130   0.18340   0.01267  Uiso   1.00
H37    H     0.07680   0.33260   0.17860   0.01267  Uiso   1.00
H38    H     0.10120   0.40650   0.33700   0.01267  Uiso   1.00
H39    H     0.11350   0.96180   0.89920   0.01267  Uiso   1.00
H40    H     0.10580   0.11880   0.97540   0.01267  Uiso   1.00
H41    H     0.21050   0.12800   0.77260   0.01267  Uiso   1.00
H42    H     0.21820   0.97100   0.69640   0.01267  Uiso   1.00
H43    H     0.11320   0.48470   0.04460   0.01267  Uiso   1.00
H44    H     0.14560   0.25510   0.05480   0.01267  Uiso   1.00
H45    H     0.12900   0.24690   0.81380   0.01267  Uiso   1.00
H46    H     0.84620   0.39650   0.13420   0.01267  Uiso   1.00
H47    H     0.83550   0.46020   0.04280   0.01267  Uiso   1.00
H48    H     0.95710   0.69150   0.24820   0.01267  Uiso   1.00
H49    H     0.96990   0.62660   0.33900   0.01267  Uiso   1.00
H50    H     0.77470   0.38270   0.65880   0.01267  Uiso   1.00
H51    H     0.79470   0.45870   0.81660   0.01267  Uiso   1.00
H52    H     0.92320   0.66740   0.82140   0.01267  Uiso   1.00
H53    H     0.89880   0.59350   0.66300   0.01267  Uiso   1.00
H54    H     0.88650   0.03820   0.10080   0.01267  Uiso   1.00
H55    H     0.89420   0.88120   0.02460   0.01267  Uiso   1.00
H56    H     0.78950   0.87200   0.22740   0.01267  Uiso   1.00
H57    H     0.78180   0.02900   0.30360   0.01267  Uiso   1.00
H58    H     0.88680   0.51530   0.95540   0.01267  Uiso   1.00
H59    H     0.85440   0.74490   0.94520   0.01267  Uiso   1.00
H60    H     0.87100   0.75310   0.18620   0.01267  Uiso   1.00
C55    C     0.08890   0.53010   0.69000   0.01267  Uiso   1.00
C56    C     0.09250   0.49240   0.75260   0.01267  Uiso   1.00
C57    C     0.13170   0.54310   0.84240   0.01267  Uiso   1.00
C58    C     0.13810   0.50490   0.89620   0.01267  Uiso   1.00
C59    C     0.10720   0.41630   0.86400   0.01267  Uiso   1.00
C60    C     0.06630   0.36850   0.77540   0.01267  Uiso   1.00
C61    C     0.05900   0.40710   0.72120   0.01267  Uiso   1.00
C62    C     0.17710   0.56980   0.45580   0.01267  Uiso   1.00
C63    C     0.16620   0.51880   0.35460   0.01267  Uiso   1.00
C64    C     0.19640   0.55870   0.30820   0.01267  Uiso   1.00
C65    C     0.18430   0.51350   0.21440   0.01267  Uiso   1.00
C66    C     0.14230   0.42900   0.16560   0.01267  Uiso   1.00
C67    C     0.10870   0.38960   0.21160   0.01267  Uiso   1.00
C68    C     0.12220   0.43410   0.30580   0.01267  Uiso   1.00
C69    C     0.16250   0.84940   0.74000   0.01267  Uiso   1.00
C70    C     0.16660   0.95170   0.79080   0.01267  Uiso   1.00
C71    C     0.13320   0.99560   0.87360   0.01267  Uiso   1.00
C72    C     0.12860   0.08880   0.91880   0.01267  Uiso   1.00
C73    C     0.15740   0.13820   0.88120   0.01267  Uiso   1.00
C74    C     0.19080   0.09420   0.79820   0.01267  Uiso   1.00
C75    C     0.19540   0.00100   0.75300   0.01267  Uiso   1.00
C76    C     0.11800   0.37170   0.91920   0.01267  Uiso   1.00
C77    C     0.12050   0.42150   0.01460   0.01267  Uiso   1.00
C78    C     0.13370   0.37780   0.06500   0.01267  Uiso   1.00
C79    C     0.13970   0.28500   0.02060   0.01267  Uiso   1.00
C80    C     0.13720   0.23380   0.92500   0.01267  Uiso   1.00
C81    C     0.12820   0.27990   0.87760   0.01267  Uiso   1.00
C82    C     0.91110   0.46990   0.31000   0.01267  Uiso   1.00
C83    C     0.90750   0.50760   0.24740   0.01267  Uiso   1.00
C84    C     0.86830   0.45690   0.15760   0.01267  Uiso   1.00
C85    C     0.86190   0.49510   0.10380   0.01267  Uiso   1.00
C86    C     0.89280   0.58370   0.13600   0.01267  Uiso   1.00
C87    C     0.93370   0.63150   0.22460   0.01267  Uiso   1.00
C88    C     0.94100   0.59290   0.27880   0.01267  Uiso   1.00
C89    C     0.82290   0.43020   0.54420   0.01267  Uiso   1.00
C90    C     0.83380   0.48120   0.64540   0.01267  Uiso   1.00
C91    C     0.80360   0.44130   0.69180   0.01267  Uiso   1.00
C92    C     0.81570   0.48650   0.78560   0.01267  Uiso   1.00
C93    C     0.85770   0.57100   0.83440   0.01267  Uiso   1.00
C94    C     0.89130   0.61040   0.78840   0.01267  Uiso   1.00
C95    C     0.87780   0.56590   0.69420   0.01267  Uiso   1.00
C96    C     0.83750   0.15060   0.26000   0.01267  Uiso   1.00
C97    C     0.83340   0.04830   0.20920   0.01267  Uiso   1.00
C98    C     0.86680   0.00440   0.12640   0.01267  Uiso   1.00
C99    C     0.87140   0.91120   0.08120   0.01267  Uiso   1.00
C100   C     0.84260   0.86180   0.11880   0.01267  Uiso   1.00
C101   C     0.80920   0.90580   0.20180   0.01267  Uiso   1.00
C102   C     0.80460   0.99900   0.24700   0.01267  Uiso   1.00
C103   C     0.88200   0.62830   0.08080   0.01267  Uiso   1.00
C104   C     0.87950   0.57850   0.98540   0.01267  Uiso   1.00
C105   C     0.86630   0.62220   0.93500   0.01267  Uiso   1.00
C106   C     0.86030   0.71500   0.97940   0.01267  Uiso   1.00
C107   C     0.86280   0.76620   0.07500   0.01267  Uiso   1.00
C108   C     0.87180   0.72010   0.12240   0.01267  Uiso   1.00
O13    O     0.14960   0.80820   0.77840   0.01267  Uiso   1.00
O14    O     0.18660   0.81040   0.66100   0.01267  Uiso   1.00
O15    O     0.12260   0.60644   0.71808   0.01267  Uiso   1.00
O16    O     0.05190   0.47694   0.61008   0.01267  Uiso   1.00
O17    O     0.21620   0.64500   0.49900   0.01267  Uiso   1.00
O18    O     0.14280   0.53379   0.49718   0.01267  Uiso   1.00
O19    O     0.85040   0.19180   0.22160   0.01267  Uiso   1.00
O20    O     0.81340   0.18960   0.33900   0.01267  Uiso   1.00
O21    O     0.87740   0.39356   0.28192   0.01267  Uiso   1.00
O22    O     0.94810   0.52306   0.38992   0.01267  Uiso   1.00
O23    O     0.78380   0.35500   0.50100   0.01267  Uiso   1.00
O24    O     0.85720   0.46621   0.50282   0.01267  Uiso   1.00
