data_EBEVAK_charged
_audit_creation_date              2014-07-02
_audit_creation_method            'Materials Studio'
_symmetry_space_group_name_H-M    'P1'
_symmetry_Int_Tables_number       1
_symmetry_cell_setting            triclinic
loop_
_symmetry_equiv_pos_as_xyz
  x,y,z
_cell_length_a                    15.9876
_cell_length_b                    16.8416
_cell_length_c                    29.9444
_cell_angle_alpha                 90.0000
_cell_angle_beta                  90.0000
_cell_angle_gamma                 98.0760
loop_
_atom_site_label
_atom_site_type_symbol
_atom_site_fract_x
_atom_site_fract_y
_atom_site_fract_z
_atom_site_U_iso_or_equiv
_atom_site_adp_type
_atom_site_occupancy
Cd1    Cd    0.98813   0.64294   0.70939   0.01267  Uiso   1.00
Cd2    Cd    0.47944   0.89272   0.22255   0.01267  Uiso   1.00
Cd3    Cd    0.51187   0.35706   0.20939   0.01267  Uiso   1.00
Cd4    Cd    0.02056   0.10728   0.72255   0.01267  Uiso   1.00
Cd5    Cd    0.01187   0.35706   0.29061   0.01267  Uiso   1.00
Cd6    Cd    0.52056   0.10728   0.77745   0.01267  Uiso   1.00
Cd7    Cd    0.48813   0.64294   0.79061   0.01267  Uiso   1.00
Cd8    Cd    0.97944   0.89272   0.27745   0.01267  Uiso   1.00
H1     H     0.17180   0.85390   0.63130   0.01267  Uiso   1.00
H2     H     0.29100   0.90660   0.59120   0.01267  Uiso   1.00
H3     H     0.39670   0.71150   0.61620   0.01267  Uiso   1.00
H4     H     0.27130   0.65100   0.64990   0.01267  Uiso   1.00
H5     H     0.43350   0.78170   0.36830   0.01267  Uiso   1.00
H6     H     0.42820   0.77940   0.44540   0.01267  Uiso   1.00
H7     H     0.60890   0.97490   0.44930   0.01267  Uiso   1.00
H8     H     0.60790   0.97970   0.37190   0.01267  Uiso   1.00
H9     H     0.85630   0.91810   0.62020   0.01267  Uiso   1.00
H10    H     0.73760   0.86700   0.57820   0.01267  Uiso   1.00
H11    H     0.60310   0.02020   0.63940   0.01267  Uiso   1.00
H12    H     0.72400   0.07950   0.67700   0.01267  Uiso   1.00
H13    H     0.39030   0.82770   0.51190   0.01267  Uiso   1.00
H14    H     0.63750   0.92370   0.51660   0.01267  Uiso   1.00
H15    H     0.50320   0.88060   0.63140   0.01267  Uiso   1.00
H16    H     0.70880   0.39200   0.07970   0.01267  Uiso   1.00
H17    H     0.83020   0.45420   0.04360   0.01267  Uiso   1.00
H18    H     0.83790   0.64310   0.12810   0.01267  Uiso   1.00
H19    H     0.71740   0.58100   0.16360   0.01267  Uiso   1.00
H20    H     0.30520   0.84340   0.08580   0.01267  Uiso   1.00
H21    H     0.18820   0.78250   0.04440   0.01267  Uiso   1.00
H22    H     0.11760   0.63810   0.14800   0.01267  Uiso   1.00
H23    H     0.23410   0.69480   0.18790   0.01267  Uiso   1.00
H24    H     0.10410   0.73090   0.85940   0.01267  Uiso   1.00
H25    H     0.09560   0.72900   0.93690   0.01267  Uiso   1.00
H26    H     0.93570   0.52050   0.93180   0.01267  Uiso   1.00
H27    H     0.94500   0.52120   0.85470   0.01267  Uiso   1.00
H28    H     0.99180   0.62900   0.11690   0.01267  Uiso   1.00
H29    H     0.12680   0.67990   0.00390   0.01267  Uiso   1.00
H30    H     0.88750   0.56760   0.99600   0.01267  Uiso   1.00
H31    H     0.80180   0.68830   0.68530   0.01267  Uiso   1.00
H32    H     0.71270   0.78380   0.69870   0.01267  Uiso   1.00
H33    H     0.87550   0.88580   0.78920   0.01267  Uiso   1.00
H34    H     0.96040   0.78760   0.77470   0.01267  Uiso   1.00
H35    H     0.53100   0.93600   0.74350   0.01267  Uiso   1.00
H36    H     0.61610   0.83760   0.73250   0.01267  Uiso   1.00
H37    H     0.81340   0.99180   0.78010   0.01267  Uiso   1.00
H38    H     0.72240   0.08530   0.78980   0.01267  Uiso   1.00
H39    H     0.32820   0.14610   0.13130   0.01267  Uiso   1.00
H40    H     0.20900   0.09340   0.09120   0.01267  Uiso   1.00
H41    H     0.10330   0.28850   0.11620   0.01267  Uiso   1.00
H42    H     0.22870   0.34900   0.14990   0.01267  Uiso   1.00
H43    H     0.06650   0.21830   0.86830   0.01267  Uiso   1.00
H44    H     0.07180   0.22060   0.94540   0.01267  Uiso   1.00
H45    H     0.89110   0.02510   0.94930   0.01267  Uiso   1.00
H46    H     0.89210   0.02030   0.87190   0.01267  Uiso   1.00
H47    H     0.64370   0.08190   0.12020   0.01267  Uiso   1.00
H48    H     0.76240   0.13300   0.07820   0.01267  Uiso   1.00
H49    H     0.89690   0.97980   0.13940   0.01267  Uiso   1.00
H50    H     0.77600   0.92050   0.17700   0.01267  Uiso   1.00
H51    H     0.10970   0.17230   0.01190   0.01267  Uiso   1.00
H52    H     0.86250   0.07630   0.01660   0.01267  Uiso   1.00
H53    H     0.99680   0.11940   0.13140   0.01267  Uiso   1.00
H54    H     0.79120   0.60800   0.57970   0.01267  Uiso   1.00
H55    H     0.66980   0.54580   0.54360   0.01267  Uiso   1.00
H56    H     0.66210   0.35690   0.62810   0.01267  Uiso   1.00
H57    H     0.78260   0.41900   0.66360   0.01267  Uiso   1.00
H58    H     0.19480   0.15660   0.58580   0.01267  Uiso   1.00
H59    H     0.31180   0.21750   0.54440   0.01267  Uiso   1.00
H60    H     0.38240   0.36190   0.64800   0.01267  Uiso   1.00
H61    H     0.26590   0.30520   0.68790   0.01267  Uiso   1.00
H62    H     0.39590   0.26910   0.35940   0.01267  Uiso   1.00
H63    H     0.40440   0.27100   0.43690   0.01267  Uiso   1.00
H64    H     0.56430   0.47950   0.43180   0.01267  Uiso   1.00
H65    H     0.55500   0.47880   0.35470   0.01267  Uiso   1.00
H66    H     0.50820   0.37100   0.61690   0.01267  Uiso   1.00
H67    H     0.37320   0.32010   0.50390   0.01267  Uiso   1.00
H68    H     0.61250   0.43240   0.49600   0.01267  Uiso   1.00
H69    H     0.69820   0.31170   0.18530   0.01267  Uiso   1.00
H70    H     0.78730   0.21620   0.19870   0.01267  Uiso   1.00
H71    H     0.62450   0.11420   0.28920   0.01267  Uiso   1.00
H72    H     0.53960   0.21240   0.27470   0.01267  Uiso   1.00
H73    H     0.96900   0.06400   0.24350   0.01267  Uiso   1.00
H74    H     0.88390   0.16240   0.23250   0.01267  Uiso   1.00
H75    H     0.68660   0.00820   0.28010   0.01267  Uiso   1.00
H76    H     0.77760   0.91470   0.28980   0.01267  Uiso   1.00
H77    H     0.82820   0.14610   0.36870   0.01267  Uiso   1.00
H78    H     0.70900   0.09340   0.40880   0.01267  Uiso   1.00
H79    H     0.60330   0.28850   0.38380   0.01267  Uiso   1.00
H80    H     0.72870   0.34900   0.35010   0.01267  Uiso   1.00
H81    H     0.56650   0.21830   0.63170   0.01267  Uiso   1.00
H82    H     0.57180   0.22060   0.55460   0.01267  Uiso   1.00
H83    H     0.39110   0.02510   0.55070   0.01267  Uiso   1.00
H84    H     0.39210   0.02030   0.62810   0.01267  Uiso   1.00
H85    H     0.14370   0.08190   0.37980   0.01267  Uiso   1.00
H86    H     0.26240   0.13300   0.42180   0.01267  Uiso   1.00
H87    H     0.39690   0.97980   0.36060   0.01267  Uiso   1.00
H88    H     0.27600   0.92050   0.32300   0.01267  Uiso   1.00
H89    H     0.60970   0.17230   0.48810   0.01267  Uiso   1.00
H90    H     0.36250   0.07630   0.48340   0.01267  Uiso   1.00
H91    H     0.49680   0.11940   0.36860   0.01267  Uiso   1.00
H92    H     0.29120   0.60800   0.92030   0.01267  Uiso   1.00
H93    H     0.16980   0.54580   0.95640   0.01267  Uiso   1.00
H94    H     0.16210   0.35690   0.87190   0.01267  Uiso   1.00
H95    H     0.28260   0.41900   0.83640   0.01267  Uiso   1.00
H96    H     0.69480   0.15660   0.91420   0.01267  Uiso   1.00
H97    H     0.81180   0.21750   0.95560   0.01267  Uiso   1.00
H98    H     0.88240   0.36190   0.85200   0.01267  Uiso   1.00
H99    H     0.76590   0.30520   0.81210   0.01267  Uiso   1.00
H100   H     0.89590   0.26910   0.14060   0.01267  Uiso   1.00
H101   H     0.90440   0.27100   0.06310   0.01267  Uiso   1.00
H102   H     0.06430   0.47950   0.06820   0.01267  Uiso   1.00
H103   H     0.05500   0.47880   0.14530   0.01267  Uiso   1.00
H104   H     0.00820   0.37100   0.88310   0.01267  Uiso   1.00
H105   H     0.87320   0.32010   0.99610   0.01267  Uiso   1.00
H106   H     0.11250   0.43240   0.00400   0.01267  Uiso   1.00
H107   H     0.19820   0.31170   0.31470   0.01267  Uiso   1.00
H108   H     0.28730   0.21620   0.30130   0.01267  Uiso   1.00
H109   H     0.12450   0.11420   0.21080   0.01267  Uiso   1.00
H110   H     0.03960   0.21240   0.22530   0.01267  Uiso   1.00
H111   H     0.46900   0.06400   0.25650   0.01267  Uiso   1.00
H112   H     0.38390   0.16240   0.26750   0.01267  Uiso   1.00
H113   H     0.18660   0.00820   0.21990   0.01267  Uiso   1.00
H114   H     0.27760   0.91470   0.21020   0.01267  Uiso   1.00
H115   H     0.67180   0.85390   0.86870   0.01267  Uiso   1.00
H116   H     0.79100   0.90660   0.90880   0.01267  Uiso   1.00
H117   H     0.89670   0.71150   0.88380   0.01267  Uiso   1.00
H118   H     0.77130   0.65100   0.85010   0.01267  Uiso   1.00
H119   H     0.93350   0.78170   0.13170   0.01267  Uiso   1.00
H120   H     0.92820   0.77940   0.05460   0.01267  Uiso   1.00
H121   H     0.10890   0.97490   0.05070   0.01267  Uiso   1.00
H122   H     0.10790   0.97970   0.12810   0.01267  Uiso   1.00
H123   H     0.35630   0.91810   0.87980   0.01267  Uiso   1.00
H124   H     0.23760   0.86700   0.92180   0.01267  Uiso   1.00
H125   H     0.10310   0.02020   0.86060   0.01267  Uiso   1.00
H126   H     0.22400   0.07950   0.82300   0.01267  Uiso   1.00
H127   H     0.89030   0.82770   0.98810   0.01267  Uiso   1.00
H128   H     0.13750   0.92370   0.98340   0.01267  Uiso   1.00
H129   H     0.00320   0.88060   0.86860   0.01267  Uiso   1.00
H130   H     0.20880   0.39200   0.42030   0.01267  Uiso   1.00
H131   H     0.33020   0.45420   0.45640   0.01267  Uiso   1.00
H132   H     0.33790   0.64310   0.37190   0.01267  Uiso   1.00
H133   H     0.21740   0.58100   0.33640   0.01267  Uiso   1.00
H134   H     0.80520   0.84340   0.41420   0.01267  Uiso   1.00
H135   H     0.68820   0.78250   0.45560   0.01267  Uiso   1.00
H136   H     0.61760   0.63810   0.35200   0.01267  Uiso   1.00
H137   H     0.73410   0.69480   0.31210   0.01267  Uiso   1.00
H138   H     0.60410   0.73090   0.64060   0.01267  Uiso   1.00
H139   H     0.59560   0.72900   0.56310   0.01267  Uiso   1.00
H140   H     0.43570   0.52050   0.56820   0.01267  Uiso   1.00
H141   H     0.44500   0.52120   0.64530   0.01267  Uiso   1.00
H142   H     0.49180   0.62900   0.38310   0.01267  Uiso   1.00
H143   H     0.62680   0.67990   0.49610   0.01267  Uiso   1.00
H144   H     0.38750   0.56760   0.50400   0.01267  Uiso   1.00
H145   H     0.30180   0.68830   0.81470   0.01267  Uiso   1.00
H146   H     0.21270   0.78380   0.80130   0.01267  Uiso   1.00
H147   H     0.37550   0.88580   0.71080   0.01267  Uiso   1.00
H148   H     0.46040   0.78760   0.72530   0.01267  Uiso   1.00
H149   H     0.03100   0.93600   0.75650   0.01267  Uiso   1.00
H150   H     0.11610   0.83760   0.76750   0.01267  Uiso   1.00
H151   H     0.31340   0.99180   0.71990   0.01267  Uiso   1.00
H152   H     0.22240   0.08530   0.71020   0.01267  Uiso   1.00
C1     C     0.12860   0.70850   0.66623   0.01267  Uiso   1.00
C2     C     0.20830   0.74570   0.64281   0.01267  Uiso   1.00
C3     C     0.21600   0.82250   0.62671   0.01267  Uiso   1.00
C4     C     0.28820   0.85440   0.60373   0.01267  Uiso   1.00
C5     C     0.35520   0.81340   0.59849   0.01267  Uiso   1.00
C6     C     0.34930   0.73980   0.61740   0.01267  Uiso   1.00
C7     C     0.27500   0.70410   0.63860   0.01267  Uiso   1.00
C8     C     0.51680   0.88830   0.31180   0.01267  Uiso   1.00
C9     C     0.52060   0.88170   0.36208   0.01267  Uiso   1.00
C10    C     0.46810   0.82190   0.38480   0.01267  Uiso   1.00
C11    C     0.46550   0.82010   0.43078   0.01267  Uiso   1.00
C12    C     0.51700   0.87710   0.45638   0.01267  Uiso   1.00
C13    C     0.57190   0.93630   0.43310   0.01267  Uiso   1.00
C14    C     0.57190   0.93850   0.38693   0.01267  Uiso   1.00
C15    C     0.88070   0.03910   0.67802   0.01267  Uiso   1.00
C16    C     0.80300   0.00460   0.65257   0.01267  Uiso   1.00
C17    C     0.80550   0.94080   0.62339   0.01267  Uiso   1.00
C18    C     0.73440   0.90950   0.59875   0.01267  Uiso   1.00
C19    C     0.65900   0.94050   0.60421   0.01267  Uiso   1.00
C20    C     0.65550   0.00100   0.63428   0.01267  Uiso   1.00
C21    C     0.72700   0.03530   0.65763   0.01267  Uiso   1.00
C22    C     0.43490   0.84780   0.57507   0.01267  Uiso   1.00
C23    C     0.43920   0.84780   0.52862   0.01267  Uiso   1.00
C24    C     0.51380   0.87680   0.50615   0.01267  Uiso   1.00
C25    C     0.58580   0.90520   0.53140   0.01267  Uiso   1.00
C26    C     0.58250   0.90680   0.57790   0.01267  Uiso   1.00
C27    C     0.50620   0.87860   0.59977   0.01267  Uiso   1.00
C28    C     0.62530   0.43910   0.14994   0.01267  Uiso   1.00
C29    C     0.70020   0.48070   0.12533   0.01267  Uiso   1.00
C30    C     0.73500   0.44320   0.08954   0.01267  Uiso   1.00
C31    C     0.80770   0.48010   0.06814   0.01267  Uiso   1.00
C32    C     0.84790   0.55490   0.08247   0.01267  Uiso   1.00
C33    C     0.81220   0.59180   0.11814   0.01267  Uiso   1.00
C34    C     0.74000   0.55500   0.13923   0.01267  Uiso   1.00
C35    C     0.36150   0.80740   0.16596   0.01267  Uiso   1.00
C36    C     0.28710   0.76910   0.13997   0.01267  Uiso   1.00
C37    C     0.26940   0.79880   0.09793   0.01267  Uiso   1.00
C38    C     0.19870   0.76290   0.07328   0.01267  Uiso   1.00
C39    C     0.14440   0.69900   0.09105   0.01267  Uiso   1.00
C40    C     0.15750   0.67760   0.13409   0.01267  Uiso   1.00
C41    C     0.22730   0.71170   0.15796   0.01267  Uiso   1.00
C42    C     0.02320   0.63280   0.79878   0.01267  Uiso   1.00
C43    C     0.02300   0.62650   0.84878   0.01267  Uiso   1.00
C44    C     0.06940   0.68840   0.87402   0.01267  Uiso   1.00
C45    C     0.06430   0.68710   0.92009   0.01267  Uiso   1.00
C46    C     0.01360   0.62510   0.94236   0.01267  Uiso   1.00
C47    C     0.96970   0.56360   0.91716   0.01267  Uiso   1.00
C48    C     0.97500   0.56430   0.87123   0.01267  Uiso   1.00
C49    C     0.92690   0.59330   0.06041   0.01267  Uiso   1.00
C50    C     0.99580   0.62800   0.08526   0.01267  Uiso   1.00
C51    C     0.07120   0.66150   0.06457   0.01267  Uiso   1.00
C52    C     0.07550   0.65870   0.01819   0.01267  Uiso   1.00
C53    C     0.00810   0.62620   0.99229   0.01267  Uiso   1.00
C54    C     0.93380   0.59200   0.01345   0.01267  Uiso   1.00
C55    C     0.81790   0.72860   0.70710   0.01267  Uiso   1.00
C56    C     0.76350   0.78550   0.71540   0.01267  Uiso   1.00
C57    C     0.78250   0.84200   0.74646   0.01267  Uiso   1.00
C58    C     0.85800   0.84470   0.76806   0.01267  Uiso   1.00
C59    C     0.90910   0.78630   0.75852   0.01267  Uiso   1.00
C60    C     0.58920   0.94740   0.75082   0.01267  Uiso   1.00
C61    C     0.63980   0.88830   0.74415   0.01267  Uiso   1.00
C62    C     0.72550   0.90300   0.75455   0.01267  Uiso   1.00
C63    C     0.75560   0.97880   0.77211   0.01267  Uiso   1.00
C64    C     0.70100   0.03430   0.77779   0.01267  Uiso   1.00
C65    C     0.37140   0.29150   0.16623   0.01267  Uiso   1.00
C66    C     0.29170   0.25430   0.14281   0.01267  Uiso   1.00
C67    C     0.28400   0.17750   0.12671   0.01267  Uiso   1.00
C68    C     0.21180   0.14560   0.10373   0.01267  Uiso   1.00
C69    C     0.14480   0.18660   0.09849   0.01267  Uiso   1.00
C70    C     0.15070   0.26020   0.11740   0.01267  Uiso   1.00
C71    C     0.22500   0.29590   0.13860   0.01267  Uiso   1.00
C72    C     0.98320   0.11170   0.81180   0.01267  Uiso   1.00
C73    C     0.97940   0.11830   0.86208   0.01267  Uiso   1.00
C74    C     0.03190   0.17810   0.88480   0.01267  Uiso   1.00
C75    C     0.03450   0.17990   0.93078   0.01267  Uiso   1.00
C76    C     0.98300   0.12290   0.95638   0.01267  Uiso   1.00
C77    C     0.92810   0.06370   0.93310   0.01267  Uiso   1.00
C78    C     0.92810   0.06150   0.88693   0.01267  Uiso   1.00
C79    C     0.61930   0.96090   0.17802   0.01267  Uiso   1.00
C80    C     0.69700   0.99540   0.15257   0.01267  Uiso   1.00
C81    C     0.69450   0.05920   0.12339   0.01267  Uiso   1.00
C82    C     0.76560   0.09050   0.09875   0.01267  Uiso   1.00
C83    C     0.84100   0.05950   0.10421   0.01267  Uiso   1.00
C84    C     0.84450   0.99900   0.13428   0.01267  Uiso   1.00
C85    C     0.77300   0.96470   0.15763   0.01267  Uiso   1.00
C86    C     0.06510   0.15220   0.07507   0.01267  Uiso   1.00
C87    C     0.06080   0.15220   0.02862   0.01267  Uiso   1.00
C88    C     0.98620   0.12320   0.00615   0.01267  Uiso   1.00
C89    C     0.91420   0.09480   0.03140   0.01267  Uiso   1.00
C90    C     0.91750   0.09320   0.07790   0.01267  Uiso   1.00
C91    C     0.99380   0.12140   0.09977   0.01267  Uiso   1.00
C92    C     0.87470   0.56090   0.64994   0.01267  Uiso   1.00
C93    C     0.79980   0.51930   0.62533   0.01267  Uiso   1.00
C94    C     0.76500   0.55680   0.58954   0.01267  Uiso   1.00
C95    C     0.69230   0.51990   0.56814   0.01267  Uiso   1.00
C96    C     0.65210   0.44510   0.58247   0.01267  Uiso   1.00
C97    C     0.68780   0.40820   0.61814   0.01267  Uiso   1.00
C98    C     0.76000   0.44500   0.63923   0.01267  Uiso   1.00
C99    C     0.13850   0.19260   0.66596   0.01267  Uiso   1.00
C100   C     0.21290   0.23090   0.63997   0.01267  Uiso   1.00
C101   C     0.23060   0.20120   0.59793   0.01267  Uiso   1.00
C102   C     0.30130   0.23710   0.57328   0.01267  Uiso   1.00
C103   C     0.35560   0.30100   0.59105   0.01267  Uiso   1.00
C104   C     0.34250   0.32240   0.63409   0.01267  Uiso   1.00
C105   C     0.27270   0.28830   0.65796   0.01267  Uiso   1.00
C106   C     0.47680   0.36720   0.29878   0.01267  Uiso   1.00
C107   C     0.47700   0.37350   0.34878   0.01267  Uiso   1.00
C108   C     0.43060   0.31160   0.37402   0.01267  Uiso   1.00
C109   C     0.43570   0.31290   0.42009   0.01267  Uiso   1.00
C110   C     0.48640   0.37490   0.44236   0.01267  Uiso   1.00
C111   C     0.53030   0.43640   0.41716   0.01267  Uiso   1.00
C112   C     0.52500   0.43570   0.37123   0.01267  Uiso   1.00
C113   C     0.57310   0.40670   0.56041   0.01267  Uiso   1.00
C114   C     0.50420   0.37200   0.58526   0.01267  Uiso   1.00
C115   C     0.42880   0.33850   0.56457   0.01267  Uiso   1.00
C116   C     0.42450   0.34130   0.51819   0.01267  Uiso   1.00
C117   C     0.49190   0.37380   0.49229   0.01267  Uiso   1.00
C118   C     0.56620   0.40800   0.51345   0.01267  Uiso   1.00
C119   C     0.68210   0.27140   0.20710   0.01267  Uiso   1.00
C120   C     0.73650   0.21450   0.21540   0.01267  Uiso   1.00
C121   C     0.71750   0.15800   0.24646   0.01267  Uiso   1.00
C122   C     0.64200   0.15530   0.26806   0.01267  Uiso   1.00
C123   C     0.59090   0.21370   0.25852   0.01267  Uiso   1.00
C124   C     0.91080   0.05260   0.25082   0.01267  Uiso   1.00
C125   C     0.86020   0.11170   0.24415   0.01267  Uiso   1.00
C126   C     0.77450   0.09700   0.25455   0.01267  Uiso   1.00
C127   C     0.74440   0.02120   0.27211   0.01267  Uiso   1.00
C128   C     0.79900   0.96570   0.27779   0.01267  Uiso   1.00
C129   C     0.87140   0.29150   0.33377   0.01267  Uiso   1.00
C130   C     0.79170   0.25430   0.35719   0.01267  Uiso   1.00
C131   C     0.78400   0.17750   0.37329   0.01267  Uiso   1.00
C132   C     0.71180   0.14560   0.39627   0.01267  Uiso   1.00
C133   C     0.64480   0.18660   0.40151   0.01267  Uiso   1.00
C134   C     0.65070   0.26020   0.38260   0.01267  Uiso   1.00
C135   C     0.72500   0.29590   0.36140   0.01267  Uiso   1.00
C136   C     0.48320   0.11170   0.68820   0.01267  Uiso   1.00
C137   C     0.47940   0.11830   0.63792   0.01267  Uiso   1.00
C138   C     0.53190   0.17810   0.61520   0.01267  Uiso   1.00
C139   C     0.53450   0.17990   0.56922   0.01267  Uiso   1.00
C140   C     0.48300   0.12290   0.54362   0.01267  Uiso   1.00
C141   C     0.42810   0.06370   0.56690   0.01267  Uiso   1.00
C142   C     0.42810   0.06150   0.61307   0.01267  Uiso   1.00
C143   C     0.11930   0.96090   0.32198   0.01267  Uiso   1.00
C144   C     0.19700   0.99540   0.34743   0.01267  Uiso   1.00
C145   C     0.19450   0.05920   0.37661   0.01267  Uiso   1.00
C146   C     0.26560   0.09050   0.40125   0.01267  Uiso   1.00
C147   C     0.34100   0.05950   0.39579   0.01267  Uiso   1.00
C148   C     0.34450   0.99900   0.36572   0.01267  Uiso   1.00
C149   C     0.27300   0.96470   0.34237   0.01267  Uiso   1.00
C150   C     0.56510   0.15220   0.42493   0.01267  Uiso   1.00
C151   C     0.56080   0.15220   0.47138   0.01267  Uiso   1.00
C152   C     0.48620   0.12320   0.49385   0.01267  Uiso   1.00
C153   C     0.41420   0.09480   0.46860   0.01267  Uiso   1.00
C154   C     0.41750   0.09320   0.42210   0.01267  Uiso   1.00
C155   C     0.49380   0.12140   0.40023   0.01267  Uiso   1.00
C156   C     0.37470   0.56090   0.85006   0.01267  Uiso   1.00
C157   C     0.29980   0.51930   0.87467   0.01267  Uiso   1.00
C158   C     0.26500   0.55680   0.91046   0.01267  Uiso   1.00
C159   C     0.19230   0.51990   0.93186   0.01267  Uiso   1.00
C160   C     0.15210   0.44510   0.91753   0.01267  Uiso   1.00
C161   C     0.18780   0.40820   0.88186   0.01267  Uiso   1.00
C162   C     0.26000   0.44500   0.86077   0.01267  Uiso   1.00
C163   C     0.63850   0.19260   0.83404   0.01267  Uiso   1.00
C164   C     0.71290   0.23090   0.86003   0.01267  Uiso   1.00
C165   C     0.73060   0.20120   0.90207   0.01267  Uiso   1.00
C166   C     0.80130   0.23710   0.92672   0.01267  Uiso   1.00
C167   C     0.85560   0.30100   0.90895   0.01267  Uiso   1.00
C168   C     0.84250   0.32240   0.86591   0.01267  Uiso   1.00
C169   C     0.77270   0.28830   0.84204   0.01267  Uiso   1.00
C170   C     0.97680   0.36720   0.20122   0.01267  Uiso   1.00
C171   C     0.97700   0.37350   0.15122   0.01267  Uiso   1.00
C172   C     0.93060   0.31160   0.12598   0.01267  Uiso   1.00
C173   C     0.93570   0.31290   0.07991   0.01267  Uiso   1.00
C174   C     0.98640   0.37490   0.05764   0.01267  Uiso   1.00
C175   C     0.03030   0.43640   0.08284   0.01267  Uiso   1.00
C176   C     0.02500   0.43570   0.12877   0.01267  Uiso   1.00
C177   C     0.07310   0.40670   0.93959   0.01267  Uiso   1.00
C178   C     0.00420   0.37200   0.91474   0.01267  Uiso   1.00
C179   C     0.92880   0.33850   0.93543   0.01267  Uiso   1.00
C180   C     0.92450   0.34130   0.98181   0.01267  Uiso   1.00
C181   C     0.99190   0.37380   0.00771   0.01267  Uiso   1.00
C182   C     0.06620   0.40800   0.98655   0.01267  Uiso   1.00
C183   C     0.18210   0.27140   0.29290   0.01267  Uiso   1.00
C184   C     0.23650   0.21450   0.28460   0.01267  Uiso   1.00
C185   C     0.21750   0.15800   0.25354   0.01267  Uiso   1.00
C186   C     0.14200   0.15530   0.23194   0.01267  Uiso   1.00
C187   C     0.09090   0.21370   0.24148   0.01267  Uiso   1.00
C188   C     0.41080   0.05260   0.24918   0.01267  Uiso   1.00
C189   C     0.36020   0.11170   0.25585   0.01267  Uiso   1.00
C190   C     0.27450   0.09700   0.24545   0.01267  Uiso   1.00
C191   C     0.24440   0.02120   0.22789   0.01267  Uiso   1.00
C192   C     0.29900   0.96570   0.22221   0.01267  Uiso   1.00
C193   C     0.62860   0.70850   0.83377   0.01267  Uiso   1.00
C194   C     0.70830   0.74570   0.85719   0.01267  Uiso   1.00
C195   C     0.71600   0.82250   0.87329   0.01267  Uiso   1.00
C196   C     0.78820   0.85440   0.89627   0.01267  Uiso   1.00
C197   C     0.85520   0.81340   0.90151   0.01267  Uiso   1.00
C198   C     0.84930   0.73980   0.88260   0.01267  Uiso   1.00
C199   C     0.77500   0.70410   0.86140   0.01267  Uiso   1.00
C200   C     0.01680   0.88830   0.18820   0.01267  Uiso   1.00
C201   C     0.02060   0.88170   0.13792   0.01267  Uiso   1.00
C202   C     0.96810   0.82190   0.11520   0.01267  Uiso   1.00
C203   C     0.96550   0.82010   0.06922   0.01267  Uiso   1.00
C204   C     0.01700   0.87710   0.04362   0.01267  Uiso   1.00
C205   C     0.07190   0.93630   0.06690   0.01267  Uiso   1.00
C206   C     0.07190   0.93850   0.11307   0.01267  Uiso   1.00
C207   C     0.38070   0.03910   0.82198   0.01267  Uiso   1.00
C208   C     0.30300   0.00460   0.84743   0.01267  Uiso   1.00
C209   C     0.30550   0.94080   0.87661   0.01267  Uiso   1.00
C210   C     0.23440   0.90950   0.90125   0.01267  Uiso   1.00
C211   C     0.15900   0.94050   0.89579   0.01267  Uiso   1.00
C212   C     0.15550   0.00100   0.86572   0.01267  Uiso   1.00
C213   C     0.22700   0.03530   0.84237   0.01267  Uiso   1.00
C214   C     0.93490   0.84780   0.92493   0.01267  Uiso   1.00
C215   C     0.93920   0.84780   0.97138   0.01267  Uiso   1.00
C216   C     0.01380   0.87680   0.99385   0.01267  Uiso   1.00
C217   C     0.08580   0.90520   0.96860   0.01267  Uiso   1.00
C218   C     0.08250   0.90680   0.92210   0.01267  Uiso   1.00
C219   C     0.00620   0.87860   0.90023   0.01267  Uiso   1.00
C220   C     0.12530   0.43910   0.35006   0.01267  Uiso   1.00
C221   C     0.20020   0.48070   0.37467   0.01267  Uiso   1.00
C222   C     0.23500   0.44320   0.41046   0.01267  Uiso   1.00
C223   C     0.30770   0.48010   0.43186   0.01267  Uiso   1.00
C224   C     0.34790   0.55490   0.41753   0.01267  Uiso   1.00
C225   C     0.31220   0.59180   0.38186   0.01267  Uiso   1.00
C226   C     0.24000   0.55500   0.36077   0.01267  Uiso   1.00
C227   C     0.86150   0.80740   0.33404   0.01267  Uiso   1.00
C228   C     0.78710   0.76910   0.36003   0.01267  Uiso   1.00
C229   C     0.76940   0.79880   0.40207   0.01267  Uiso   1.00
C230   C     0.69870   0.76290   0.42672   0.01267  Uiso   1.00
C231   C     0.64440   0.69900   0.40895   0.01267  Uiso   1.00
C232   C     0.65750   0.67760   0.36591   0.01267  Uiso   1.00
C233   C     0.72730   0.71170   0.34204   0.01267  Uiso   1.00
C234   C     0.52320   0.63280   0.70122   0.01267  Uiso   1.00
C235   C     0.52300   0.62650   0.65122   0.01267  Uiso   1.00
C236   C     0.56940   0.68840   0.62598   0.01267  Uiso   1.00
C237   C     0.56430   0.68710   0.57991   0.01267  Uiso   1.00
C238   C     0.51360   0.62510   0.55764   0.01267  Uiso   1.00
C239   C     0.46970   0.56360   0.58284   0.01267  Uiso   1.00
C240   C     0.47500   0.56430   0.62877   0.01267  Uiso   1.00
C241   C     0.42690   0.59330   0.43959   0.01267  Uiso   1.00
C242   C     0.49580   0.62800   0.41474   0.01267  Uiso   1.00
C243   C     0.57120   0.66150   0.43543   0.01267  Uiso   1.00
C244   C     0.57550   0.65870   0.48181   0.01267  Uiso   1.00
C245   C     0.50810   0.62620   0.50771   0.01267  Uiso   1.00
C246   C     0.43380   0.59200   0.48655   0.01267  Uiso   1.00
C247   C     0.31790   0.72860   0.79290   0.01267  Uiso   1.00
C248   C     0.26350   0.78550   0.78460   0.01267  Uiso   1.00
C249   C     0.28250   0.84200   0.75354   0.01267  Uiso   1.00
C250   C     0.35800   0.84470   0.73194   0.01267  Uiso   1.00
C251   C     0.40910   0.78630   0.74148   0.01267  Uiso   1.00
C252   C     0.08920   0.94740   0.74918   0.01267  Uiso   1.00
C253   C     0.13980   0.88830   0.75585   0.01267  Uiso   1.00
C254   C     0.22550   0.90300   0.74545   0.01267  Uiso   1.00
C255   C     0.25560   0.97880   0.72789   0.01267  Uiso   1.00
C256   C     0.20100   0.03430   0.72221   0.01267  Uiso   1.00
N1     N     0.89019   0.72830   0.72800   0.01267  Uiso   1.00
N2     N     0.61844   0.01920   0.76703   0.01267  Uiso   1.00
N3     N     0.60981   0.27170   0.22800   0.01267  Uiso   1.00
N4     N     0.88156   0.98080   0.26703   0.01267  Uiso   1.00
N5     N     0.10981   0.27170   0.27200   0.01267  Uiso   1.00
N6     N     0.38156   0.98080   0.23297   0.01267  Uiso   1.00
N7     N     0.39019   0.72830   0.77200   0.01267  Uiso   1.00
N8     N     0.11844   0.01920   0.73297   0.01267  Uiso   1.00
O1     O     0.07247   0.75188   0.67507   0.01267  Uiso   1.00
O2     O     0.11989   0.63573   0.67707   0.01267  Uiso   1.00
O3     O     0.48260   0.82910   0.28978   0.01267  Uiso   1.00
O4     O     0.54498   0.95320   0.29350   0.01267  Uiso   1.00
O5     O     0.93895   0.99760   0.68373   0.01267  Uiso   1.00
O6     O     0.88577   0.10970   0.69297   0.01267  Uiso   1.00
O7     O     0.58680   0.37410   0.13531   0.01267  Uiso   1.00
O8     O     0.60430   0.46810   0.18645   0.01267  Uiso   1.00
O9     O     0.37100   0.78540   0.20552   0.01267  Uiso   1.00
O10    O     0.41140   0.86430   0.14877   0.01267  Uiso   1.00
O11    O     0.06090   0.69250   0.77970   0.01267  Uiso   1.00
O12    O     0.98010   0.57490   0.77685   0.01267  Uiso   1.00
O13    O     0.42753   0.24812   0.17507   0.01267  Uiso   1.00
O14    O     0.38011   0.36427   0.17707   0.01267  Uiso   1.00
O15    O     0.01740   0.17090   0.78978   0.01267  Uiso   1.00
O16    O     0.95502   0.04680   0.79350   0.01267  Uiso   1.00
O17    O     0.56105   0.00240   0.18373   0.01267  Uiso   1.00
O18    O     0.61423   0.89030   0.19297   0.01267  Uiso   1.00
O19    O     0.91320   0.62590   0.63531   0.01267  Uiso   1.00
O20    O     0.89570   0.53190   0.68645   0.01267  Uiso   1.00
O21    O     0.12900   0.21460   0.70552   0.01267  Uiso   1.00
O22    O     0.08860   0.13570   0.64877   0.01267  Uiso   1.00
O23    O     0.43910   0.30750   0.27970   0.01267  Uiso   1.00
O24    O     0.51990   0.42510   0.27685   0.01267  Uiso   1.00
O25    O     0.92753   0.24812   0.32493   0.01267  Uiso   1.00
O26    O     0.88011   0.36427   0.32293   0.01267  Uiso   1.00
O27    O     0.51740   0.17090   0.71022   0.01267  Uiso   1.00
O28    O     0.45502   0.04680   0.70650   0.01267  Uiso   1.00
O29    O     0.06105   0.00240   0.31627   0.01267  Uiso   1.00
O30    O     0.11423   0.89030   0.30703   0.01267  Uiso   1.00
O31    O     0.41320   0.62590   0.86469   0.01267  Uiso   1.00
O32    O     0.39570   0.53190   0.81355   0.01267  Uiso   1.00
O33    O     0.62900   0.21460   0.79448   0.01267  Uiso   1.00
O34    O     0.58860   0.13570   0.85123   0.01267  Uiso   1.00
O35    O     0.93910   0.30750   0.22030   0.01267  Uiso   1.00
O36    O     0.01990   0.42510   0.22315   0.01267  Uiso   1.00
O37    O     0.57247   0.75188   0.82493   0.01267  Uiso   1.00
O38    O     0.61989   0.63573   0.82293   0.01267  Uiso   1.00
O39    O     0.98260   0.82910   0.21022   0.01267  Uiso   1.00
O40    O     0.04498   0.95320   0.20650   0.01267  Uiso   1.00
O41    O     0.43895   0.99760   0.81627   0.01267  Uiso   1.00
O42    O     0.38577   0.10970   0.80703   0.01267  Uiso   1.00
O43    O     0.08680   0.37410   0.36469   0.01267  Uiso   1.00
O44    O     0.10430   0.46810   0.31355   0.01267  Uiso   1.00
O45    O     0.87100   0.78540   0.29448   0.01267  Uiso   1.00
O46    O     0.91140   0.86430   0.35123   0.01267  Uiso   1.00
O47    O     0.56090   0.69250   0.72030   0.01267  Uiso   1.00
O48    O     0.48010   0.57490   0.72315   0.01267  Uiso   1.00
