data_EBOJOV_clean
_audit_creation_date              2014-07-02
_audit_creation_method            'Materials Studio'
_symmetry_space_group_name_H-M    'P1'
_symmetry_Int_Tables_number       1
_symmetry_cell_setting            triclinic
loop_
_symmetry_equiv_pos_as_xyz
  x,y,z
_cell_length_a                    11.0150
_cell_length_b                    13.2460
_cell_length_c                    14.0969
_cell_angle_alpha                 116.6490
_cell_angle_beta                  112.9970
_cell_angle_gamma                 90.0000
loop_
_atom_site_label
_atom_site_type_symbol
_atom_site_fract_x
_atom_site_fract_y
_atom_site_fract_z
_atom_site_U_iso_or_equiv
_atom_site_adp_type
_atom_site_occupancy
Eu1    Eu    0.74080  -0.00000   0.00000   0.01267  Uiso   1.00
Eu2    Eu    0.25920  -0.00000  -0.00000   0.01267  Uiso   1.00
Eu3    Eu    0.50630   0.20720   0.01260   0.01267  Uiso   1.00
Eu4    Eu    0.61520   0.09780   0.23040   0.01267  Uiso   1.00
Eu5    Eu    0.49370   0.79280   0.98740   0.01267  Uiso   1.00
Eu6    Eu    0.38480   0.90220   0.76960   0.01267  Uiso   1.00
Eu7    Eu    0.07880   0.91710   0.15760   0.01267  Uiso   1.00
Eu8    Eu    0.09360   0.22660   0.18720   0.01267  Uiso   1.00
Eu9    Eu    0.92120   0.08290   0.84240   0.01267  Uiso   1.00
Eu10   Eu    0.90640   0.77340   0.81280   0.01267  Uiso   1.00
C1     C     0.91100   0.70500   0.18800   0.01267  Uiso   1.00
C2     C     0.97500   0.61500   0.19800   0.01267  Uiso   1.00
C3     C     0.91900   0.49600   0.10600   0.01267  Uiso   1.00
C4     C     0.85200   0.41100   0.12800   0.01267  Uiso   1.00
C5     C     0.72300   0.29500   0.81200   0.01267  Uiso   1.00
C6     C     0.77700   0.38500   0.80200   0.01267  Uiso   1.00
C7     C     0.81300   0.50400   0.89400   0.01267  Uiso   1.00
C8     C     0.72400   0.58900   0.87200   0.01267  Uiso   1.00
C9     C     0.08900   0.29500   0.81200   0.01267  Uiso   1.00
C10    C     0.02500   0.38500   0.80200   0.01267  Uiso   1.00
C11    C     0.08100   0.50400   0.89400   0.01267  Uiso   1.00
C12    C     0.14800   0.58900   0.87200   0.01267  Uiso   1.00
C13    C     0.27700   0.70500   0.18800   0.01267  Uiso   1.00
C14    C     0.22300   0.61500   0.19800   0.01267  Uiso   1.00
C15    C     0.18700   0.49600   0.10600   0.01267  Uiso   1.00
C16    C     0.27600   0.41100   0.12800   0.01267  Uiso   1.00
C17    C     0.37800   0.18400   0.75600   0.01267  Uiso   1.00
C18    C     0.62200   0.81600   0.24400   0.01267  Uiso   1.00
C19    C     0.24400   0.05600   0.48800   0.01267  Uiso   1.00
C20    C     0.27900   0.17400   0.55800   0.01267  Uiso   1.00
C21    C     0.33700   0.23100   0.67400   0.01267  Uiso   1.00
C22    C     0.75600   0.94400   0.51200   0.01267  Uiso   1.00
C23    C     0.72100   0.82600   0.44200   0.01267  Uiso   1.00
C24    C     0.66300   0.76900   0.32600   0.01267  Uiso   1.00
O1     O     0.71100   0.18200   0.14800   0.01267  Uiso   1.00
O2     O     0.70500   0.93000   0.13200   0.01267  Uiso   1.00
O3     O     0.96100   0.07600   0.18600   0.01267  Uiso   1.00
O4     O     0.84000   0.83000   0.97800   0.01267  Uiso   1.00
O5     O     0.97100   0.79700   0.20200   0.01267  Uiso   1.00
O6     O     0.79200   0.68000   0.13200   0.01267  Uiso   1.00
O7     O     0.71300   0.36100   0.06600   0.01267  Uiso   1.00
O8     O     0.93500   0.36400   0.19000   0.01267  Uiso   1.00
O9     O     0.56300   0.81800   0.85200   0.01267  Uiso   1.00
O10    O     0.57300   0.07000   0.86800   0.01267  Uiso   1.00
O11    O     0.77500   0.92400   0.81400   0.01267  Uiso   1.00
O12    O     0.86200   0.17000   0.02200   0.01267  Uiso   1.00
O13    O     0.76900   0.20300   0.79800   0.01267  Uiso   1.00
O14    O     0.66000   0.32000   0.86800   0.01267  Uiso   1.00
O15    O     0.64700   0.63900   0.93400   0.01267  Uiso   1.00
O16    O     0.74500   0.63600   0.81000   0.01267  Uiso   1.00
O17    O     0.28900   0.81800   0.85200   0.01267  Uiso   1.00
O18    O     0.29500   0.07000   0.86800   0.01267  Uiso   1.00
O19    O     0.03900   0.92400   0.81400   0.01267  Uiso   1.00
O20    O     0.16000   0.17000   0.02200   0.01267  Uiso   1.00
O21    O     0.02900   0.20300   0.79800   0.01267  Uiso   1.00
O22    O     0.20800   0.32000   0.86800   0.01267  Uiso   1.00
O23    O     0.28700   0.63900   0.93400   0.01267  Uiso   1.00
O24    O     0.06500   0.63600   0.81000   0.01267  Uiso   1.00
O25    O     0.43700   0.18200   0.14800   0.01267  Uiso   1.00
O26    O     0.42700   0.93000   0.13200   0.01267  Uiso   1.00
O27    O     0.22500   0.07600   0.18600   0.01267  Uiso   1.00
O28    O     0.13800   0.83000   0.97800   0.01267  Uiso   1.00
O29    O     0.23100   0.79700   0.20200   0.01267  Uiso   1.00
O30    O     0.34000   0.68000   0.13200   0.01267  Uiso   1.00
O31    O     0.35300   0.36100   0.06600   0.01267  Uiso   1.00
O32    O     0.25500   0.36400   0.19000   0.01267  Uiso   1.00
O33    O     0.43300   0.25700   0.86600   0.01267  Uiso   1.00
O34    O     0.63800   0.92700   0.27600   0.01267  Uiso   1.00
O35    O     0.56700   0.74300   0.13400   0.01267  Uiso   1.00
O36    O     0.36200   0.07300   0.72400   0.01267  Uiso   1.00
O37    O     0.18700   0.01500   0.37400   0.01267  Uiso   1.00
O38    O     0.26500   0.98700   0.53000   0.01267  Uiso   1.00
O39    O     0.81300   0.98500   0.62600   0.01267  Uiso   1.00
O40    O     0.73500   0.01300   0.47000   0.01267  Uiso   1.00
O41    O     0.00000   0.00000   0.00000   0.01267  Uiso   1.00
O42    O     0.50000  -0.00000  -0.00000   0.01267  Uiso   1.00
