data_ECEZAO_clean
_audit_creation_date              2014-07-02
_audit_creation_method            'Materials Studio'
_symmetry_space_group_name_H-M    'P1'
_symmetry_Int_Tables_number       1
_symmetry_cell_setting            triclinic
loop_
_symmetry_equiv_pos_as_xyz
  x,y,z
_cell_length_a                    6.3805
_cell_length_b                    10.0560
_cell_length_c                    11.2429
_cell_angle_alpha                 116.5650
_cell_angle_beta                  96.3543
_cell_angle_gamma                 90.0000
loop_
_atom_site_label
_atom_site_type_symbol
_atom_site_fract_x
_atom_site_fract_y
_atom_site_fract_z
_atom_site_U_iso_or_equiv
_atom_site_adp_type
_atom_site_occupancy
Ni1    Ni    0.00000   0.65028   0.00000   0.01267  Uiso   1.00
Ni2    Ni    0.00000   0.34972  -0.00000   0.01267  Uiso   1.00
Ni3    Ni    0.50000   0.50000  -0.00000   0.01267  Uiso   1.00
H1     H     0.57590   0.62400   0.65400   0.01267  Uiso   1.00
H2     H     0.41390   0.62060   0.61900   0.01267  Uiso   1.00
H3     H     0.25090   0.56500   0.66040   0.01267  Uiso   1.00
H4     H     0.86030   0.49250   0.56340   0.01267  Uiso   1.00
H5     H     0.68740   0.59700   0.57060   0.01267  Uiso   1.00
H6     H     0.42410   0.97000   0.34600   0.01267  Uiso   1.00
H7     H     0.58610   0.00160   0.38100   0.01267  Uiso   1.00
H8     H     0.74910   0.90460   0.33960   0.01267  Uiso   1.00
H9     H     0.13970   0.92910   0.43660   0.01267  Uiso   1.00
H10    H     0.31260   0.02640   0.42940   0.01267  Uiso   1.00
H11    H     0.42410   0.37600   0.34600   0.01267  Uiso   1.00
H12    H     0.58610   0.37940   0.38100   0.01267  Uiso   1.00
H13    H     0.74910   0.43500   0.33960   0.01267  Uiso   1.00
H14    H     0.13970   0.50750   0.43660   0.01267  Uiso   1.00
H15    H     0.31260   0.40300   0.42940   0.01267  Uiso   1.00
H16    H     0.57590   0.03000   0.65400   0.01267  Uiso   1.00
H17    H     0.41390   0.99840   0.61900   0.01267  Uiso   1.00
H18    H     0.25090   0.09540   0.66040   0.01267  Uiso   1.00
H19    H     0.86030   0.07090   0.56340   0.01267  Uiso   1.00
H20    H     0.68740   0.97360   0.57060   0.01267  Uiso   1.00
H21    H     0.84270   0.57650   0.15300   0.01267  Uiso   1.00
H22    H     0.15730   0.42350   0.84700   0.01267  Uiso   1.00
C1     C     0.57030   0.52580   0.63480   0.01267  Uiso   1.00
C2     C     0.35000   0.51140   0.59220   0.01267  Uiso   1.00
C3     C     0.72520   0.49610   0.54280   0.01267  Uiso   1.00
C4     C     0.64990   0.55990   0.77720   0.01267  Uiso   1.00
C5     C     0.42970   0.89100   0.36520   0.01267  Uiso   1.00
C6     C     0.65000   0.91920   0.40780   0.01267  Uiso   1.00
C7     C     0.27480   0.95330   0.45720   0.01267  Uiso   1.00
C8     C     0.35010   0.78270   0.22280   0.01267  Uiso   1.00
C9     C     0.42970   0.47420   0.36520   0.01267  Uiso   1.00
C10    C     0.65000   0.48860   0.40780   0.01267  Uiso   1.00
C11    C     0.27480   0.50390   0.45720   0.01267  Uiso   1.00
C12    C     0.35010   0.44010   0.22280   0.01267  Uiso   1.00
C13    C     0.57030   0.10900   0.63480   0.01267  Uiso   1.00
C14    C     0.35000   0.08080   0.59220   0.01267  Uiso   1.00
C15    C     0.72520   0.04670   0.54280   0.01267  Uiso   1.00
C16    C     0.64990   0.21730   0.77720   0.01267  Uiso   1.00
O1     O     0.84470   0.56950   0.81020   0.01267  Uiso   1.00
O2     O     0.51160   0.57350   0.85440   0.01267  Uiso   1.00
O3     O     0.15530   0.75930   0.18980   0.01267  Uiso   1.00
O4     O     0.48840   0.71910   0.14560   0.01267  Uiso   1.00
O5     O     0.15530   0.43050   0.18980   0.01267  Uiso   1.00
O6     O     0.48840   0.42650   0.14560   0.01267  Uiso   1.00
O7     O     0.84470   0.24070   0.81020   0.01267  Uiso   1.00
O8     O     0.51160   0.28090   0.85440   0.01267  Uiso   1.00
O9     O     0.81700   0.52880   0.05760   0.01267  Uiso   1.00
O10    O     0.18300   0.47120   0.94240   0.01267  Uiso   1.00
