data_ECOTOG_clean
_audit_creation_date              2014-07-02
_audit_creation_method            'Materials Studio'
_symmetry_space_group_name_H-M    'P1'
_symmetry_Int_Tables_number       1
_symmetry_cell_setting            triclinic
loop_
_symmetry_equiv_pos_as_xyz
  x,y,z
_cell_length_a                    7.4914
_cell_length_b                    9.9397
_cell_length_c                    17.3805
_cell_angle_alpha                 90.0000
_cell_angle_beta                  90.0000
_cell_angle_gamma                 90.0000
loop_
_atom_site_label
_atom_site_type_symbol
_atom_site_fract_x
_atom_site_fract_y
_atom_site_fract_z
_atom_site_U_iso_or_equiv
_atom_site_adp_type
_atom_site_occupancy
Co1    Co    0.12709   0.75000   0.57937   0.01267  Uiso   1.00
Co2    Co    0.02576   0.75000   0.23781   0.01267  Uiso   1.00
Co3    Co    0.37291   0.25000   0.07937   0.01267  Uiso   1.00
Co4    Co    0.47424   0.25000   0.73781   0.01267  Uiso   1.00
Co5    Co    0.87291   0.25000   0.42063   0.01267  Uiso   1.00
Co6    Co    0.97424   0.25000   0.76219   0.01267  Uiso   1.00
Co7    Co    0.62709   0.75000   0.92063   0.01267  Uiso   1.00
Co8    Co    0.52576   0.75000   0.26219   0.01267  Uiso   1.00
H1     H     0.45140   0.96980   0.62760   0.01267  Uiso   1.00
H2     H     0.94350   0.95930   0.68060   0.01267  Uiso   1.00
H3     H     0.04860   0.03020   0.12760   0.01267  Uiso   1.00
H4     H     0.55650   0.04070   0.18060   0.01267  Uiso   1.00
H5     H     0.54860   0.46980   0.37240   0.01267  Uiso   1.00
H6     H     0.05650   0.45930   0.31940   0.01267  Uiso   1.00
H7     H     0.95140   0.53020   0.87240   0.01267  Uiso   1.00
H8     H     0.44350   0.54070   0.81940   0.01267  Uiso   1.00
H9     H     0.54860   0.03020   0.37240   0.01267  Uiso   1.00
H10    H     0.05650   0.04070   0.31940   0.01267  Uiso   1.00
H11    H     0.95140   0.96980   0.87240   0.01267  Uiso   1.00
H12    H     0.44350   0.95930   0.81940   0.01267  Uiso   1.00
H13    H     0.45140   0.53020   0.62760   0.01267  Uiso   1.00
H14    H     0.94350   0.54070   0.68060   0.01267  Uiso   1.00
H15    H     0.04860   0.46980   0.12760   0.01267  Uiso   1.00
H16    H     0.55650   0.45930   0.18060   0.01267  Uiso   1.00
H17    H     0.97180   0.75000   0.41980   0.01267  Uiso   1.00
H18    H     0.48670   0.75000   0.45940   0.01267  Uiso   1.00
H19    H     0.52820   0.25000   0.91980   0.01267  Uiso   1.00
H20    H     0.01330   0.25000   0.95940   0.01267  Uiso   1.00
H21    H     0.02820   0.25000   0.58020   0.01267  Uiso   1.00
H22    H     0.51330   0.25000   0.54060   0.01267  Uiso   1.00
H23    H     0.47180   0.75000   0.08020   0.01267  Uiso   1.00
H24    H     0.98670   0.75000   0.04060   0.01267  Uiso   1.00
C1     C     0.33790   0.99200   0.64835   0.01267  Uiso   1.00
C2     C     0.06480   0.98620   0.67686   0.01267  Uiso   1.00
C3     C     0.16210   0.00800   0.14835   0.01267  Uiso   1.00
C4     C     0.43520   0.01380   0.17686   0.01267  Uiso   1.00
C5     C     0.66210   0.49200   0.35165   0.01267  Uiso   1.00
C6     C     0.93520   0.48620   0.32314   0.01267  Uiso   1.00
C7     C     0.83790   0.50800   0.85165   0.01267  Uiso   1.00
C8     C     0.56480   0.51380   0.82314   0.01267  Uiso   1.00
C9     C     0.66210   0.00800   0.35165   0.01267  Uiso   1.00
C10    C     0.93520   0.01380   0.32314   0.01267  Uiso   1.00
C11    C     0.83790   0.99200   0.85165   0.01267  Uiso   1.00
C12    C     0.56480   0.98620   0.82314   0.01267  Uiso   1.00
C13    C     0.33790   0.50800   0.64835   0.01267  Uiso   1.00
C14    C     0.06480   0.51380   0.67686   0.01267  Uiso   1.00
C15    C     0.16210   0.49200   0.14835   0.01267  Uiso   1.00
C16    C     0.43520   0.48620   0.17686   0.01267  Uiso   1.00
C17    C     0.09760   0.75000   0.41265   0.01267  Uiso   1.00
C18    C     0.37440   0.75000   0.43401   0.01267  Uiso   1.00
C19    C     0.40240   0.25000   0.91265   0.01267  Uiso   1.00
C20    C     0.12560   0.25000   0.93401   0.01267  Uiso   1.00
C21    C     0.90240   0.25000   0.58735   0.01267  Uiso   1.00
C22    C     0.62560   0.25000   0.56599   0.01267  Uiso   1.00
C23    C     0.59760   0.75000   0.08735   0.01267  Uiso   1.00
C24    C     0.87440   0.75000   0.06599   0.01267  Uiso   1.00
N1     N     0.30780   0.09918   0.69116   0.01267  Uiso   1.00
N2     N     0.12920   0.09516   0.70984   0.01267  Uiso   1.00
N3     N     0.18910   0.91694   0.63728   0.01267  Uiso   1.00
N4     N     0.19220   0.90082   0.19116   0.01267  Uiso   1.00
N5     N     0.37080   0.90484   0.20984   0.01267  Uiso   1.00
N6     N     0.31090   0.08306   0.13728   0.01267  Uiso   1.00
N7     N     0.69220   0.59918   0.30884   0.01267  Uiso   1.00
N8     N     0.87080   0.59516   0.29016   0.01267  Uiso   1.00
N9     N     0.81090   0.41694   0.36272   0.01267  Uiso   1.00
N10    N     0.80780   0.40082   0.80884   0.01267  Uiso   1.00
N11    N     0.62920   0.40484   0.79016   0.01267  Uiso   1.00
N12    N     0.68910   0.58306   0.86272   0.01267  Uiso   1.00
N13    N     0.69220   0.90082   0.30884   0.01267  Uiso   1.00
N14    N     0.87080   0.90484   0.29016   0.01267  Uiso   1.00
N15    N     0.81090   0.08306   0.36272   0.01267  Uiso   1.00
N16    N     0.80780   0.09918   0.80884   0.01267  Uiso   1.00
N17    N     0.62920   0.09516   0.79016   0.01267  Uiso   1.00
N18    N     0.68910   0.91694   0.86272   0.01267  Uiso   1.00
N19    N     0.30780   0.40082   0.69116   0.01267  Uiso   1.00
N20    N     0.12920   0.40484   0.70984   0.01267  Uiso   1.00
N21    N     0.18910   0.58306   0.63728   0.01267  Uiso   1.00
N22    N     0.19220   0.59918   0.19116   0.01267  Uiso   1.00
N23    N     0.37080   0.59516   0.20984   0.01267  Uiso   1.00
N24    N     0.31090   0.41694   0.13728   0.01267  Uiso   1.00
N25    N     0.21540   0.75000   0.47111   0.01267  Uiso   1.00
N26    N     0.17470   0.75000   0.34446   0.01267  Uiso   1.00
N27    N     0.35490   0.75000   0.35839   0.01267  Uiso   1.00
N28    N     0.28460   0.25000   0.97111   0.01267  Uiso   1.00
N29    N     0.32530   0.25000   0.84446   0.01267  Uiso   1.00
N30    N     0.14510   0.25000   0.85839   0.01267  Uiso   1.00
N31    N     0.78460   0.25000   0.52889   0.01267  Uiso   1.00
N32    N     0.82530   0.25000   0.65554   0.01267  Uiso   1.00
N33    N     0.64510   0.25000   0.64161   0.01267  Uiso   1.00
N34    N     0.71540   0.75000   0.02889   0.01267  Uiso   1.00
N35    N     0.67470   0.75000   0.15554   0.01267  Uiso   1.00
N36    N     0.85490   0.75000   0.14161   0.01267  Uiso   1.00
Cl1    Cl    0.82291   0.75000   0.57271   0.01267  Uiso   1.00
Cl2    Cl    0.67709   0.25000   0.07271   0.01267  Uiso   1.00
Cl3    Cl    0.17709   0.25000   0.42729   0.01267  Uiso   1.00
Cl4    Cl    0.32291   0.75000   0.92729   0.01267  Uiso   1.00
