data_EDOVIE_charged
_audit_creation_date              2014-07-02
_audit_creation_method            'Materials Studio'
_symmetry_space_group_name_H-M    'P1'
_symmetry_Int_Tables_number       1
_symmetry_cell_setting            triclinic
loop_
_symmetry_equiv_pos_as_xyz
  x,y,z
_cell_length_a                    18.0360
_cell_length_b                    18.0360
_cell_length_c                    21.3620
_cell_angle_alpha                 90.0000
_cell_angle_beta                  90.0000
_cell_angle_gamma                 120.0000
loop_
_atom_site_label
_atom_site_type_symbol
_atom_site_fract_x
_atom_site_fract_y
_atom_site_fract_z
_atom_site_U_iso_or_equiv
_atom_site_adp_type
_atom_site_occupancy
Dy1    Dy    0.93470   0.33346   0.91037   0.01267  Uiso   1.00
Dy2    Dy    0.16987   0.39810   0.91268   0.01267  Uiso   1.00
Dy3    Dy    0.39876   0.06530   0.57704   0.01267  Uiso   1.00
Dy4    Dy    0.22823   0.83013   0.57935   0.01267  Uiso   1.00
Dy5    Dy    0.66654   0.60124   0.24370   0.01267  Uiso   1.00
Dy6    Dy    0.60190   0.77177   0.24601   0.01267  Uiso   1.00
Dy7    Dy    0.60124   0.66654   0.08963   0.01267  Uiso   1.00
Dy8    Dy    0.77177   0.60190   0.08732   0.01267  Uiso   1.00
Dy9    Dy    0.33346   0.93470   0.42296   0.01267  Uiso   1.00
Dy10   Dy    0.39810   0.16987   0.42065   0.01267  Uiso   1.00
Dy11   Dy    0.06530   0.39876   0.75630   0.01267  Uiso   1.00
Dy12   Dy    0.83013   0.22823   0.75399   0.01267  Uiso   1.00
Dy13   Dy    0.00000   0.18676   0.83333   0.01267  Uiso   1.00
Dy14   Dy    0.18676  -0.00000   0.50000   0.01267  Uiso   1.00
Dy15   Dy    0.81324   0.81324   0.16667   0.01267  Uiso   1.00
Zn1    Zn    0.35222  -0.00000   0.00000   0.01267  Uiso   1.00
Zn2    Zn    0.64778   0.64778   0.66667   0.01267  Uiso   1.00
Zn3    Zn    0.00000   0.35222   0.33333   0.01267  Uiso   1.00
H1     H     0.94990   0.40790   0.11240   0.01267  Uiso   1.00
H2     H     0.14900   0.36900   0.12490   0.01267  Uiso   1.00
H3     H     0.12940   0.35720   0.23220   0.01267  Uiso   1.00
H4     H     0.87730   0.45410   0.16710   0.01267  Uiso   1.00
H5     H     0.76290   0.43250   0.33370   0.01267  Uiso   1.00
H6     H     0.84470   0.37910   0.37410   0.01267  Uiso   1.00
H7     H     0.10990   0.05490   0.96430   0.01267  Uiso   1.00
H8     H     0.33410   0.26420   0.92850   0.01267  Uiso   1.00
H9     H     0.39980   0.18890   0.95700   0.01267  Uiso   1.00
H10    H     0.02360   0.23790   0.94510   0.01267  Uiso   1.00
H11    H     0.11710   0.48800   0.87490   0.01267  Uiso   1.00
H12    H     0.84830   0.15260   0.84560   0.01267  Uiso   1.00
H13    H     0.45800   0.05010   0.77907   0.01267  Uiso   1.00
H14    H     0.22000   0.85100   0.79157   0.01267  Uiso   1.00
H15    H     0.22780   0.87060   0.89887   0.01267  Uiso   1.00
H16    H     0.57680   0.12270   0.83377   0.01267  Uiso   1.00
H17    H     0.66960   0.23710   0.00037   0.01267  Uiso   1.00
H18    H     0.53440   0.15530   0.04077   0.01267  Uiso   1.00
H19    H     0.94500   0.89010   0.63097   0.01267  Uiso   1.00
H20    H     0.93010   0.66590   0.59517   0.01267  Uiso   1.00
H21    H     0.78910   0.60020   0.62367   0.01267  Uiso   1.00
H22    H     0.21430   0.97640   0.61177   0.01267  Uiso   1.00
H23    H     0.37090   0.88290   0.54157   0.01267  Uiso   1.00
H24    H     0.30430   0.15170   0.51227   0.01267  Uiso   1.00
H25    H     0.59210   0.54200   0.44573   0.01267  Uiso   1.00
H26    H     0.63100   0.78000   0.45823   0.01267  Uiso   1.00
H27    H     0.64280   0.77220   0.56553   0.01267  Uiso   1.00
H28    H     0.54590   0.42320   0.50043   0.01267  Uiso   1.00
H29    H     0.56750   0.33040   0.66703   0.01267  Uiso   1.00
H30    H     0.62090   0.46560   0.70743   0.01267  Uiso   1.00
H31    H     0.94510   0.05500   0.29763   0.01267  Uiso   1.00
H32    H     0.73580   0.06990   0.26183   0.01267  Uiso   1.00
H33    H     0.81110   0.21090   0.29033   0.01267  Uiso   1.00
H34    H     0.76210   0.78570   0.27843   0.01267  Uiso   1.00
H35    H     0.51200   0.62910   0.20823   0.01267  Uiso   1.00
H36    H     0.84740   0.69570   0.17893   0.01267  Uiso   1.00
H37    H     0.54200   0.59210   0.88760   0.01267  Uiso   1.00
H38    H     0.78000   0.63100   0.87510   0.01267  Uiso   1.00
H39    H     0.77220   0.64280   0.76780   0.01267  Uiso   1.00
H40    H     0.42320   0.54590   0.83290   0.01267  Uiso   1.00
H41    H     0.33040   0.56750   0.66630   0.01267  Uiso   1.00
H42    H     0.46560   0.62090   0.62590   0.01267  Uiso   1.00
H43    H     0.05500   0.94510   0.03570   0.01267  Uiso   1.00
H44    H     0.06990   0.73580   0.07150   0.01267  Uiso   1.00
H45    H     0.21090   0.81110   0.04300   0.01267  Uiso   1.00
H46    H     0.78570   0.76210   0.05490   0.01267  Uiso   1.00
H47    H     0.62910   0.51200   0.12510   0.01267  Uiso   1.00
H48    H     0.69570   0.84740   0.15440   0.01267  Uiso   1.00
H49    H     0.40790   0.94990   0.22093   0.01267  Uiso   1.00
H50    H     0.36900   0.14900   0.20843   0.01267  Uiso   1.00
H51    H     0.35720   0.12940   0.10113   0.01267  Uiso   1.00
H52    H     0.45410   0.87730   0.16623   0.01267  Uiso   1.00
H53    H     0.43250   0.76290   0.99963   0.01267  Uiso   1.00
H54    H     0.37910   0.84470   0.95923   0.01267  Uiso   1.00
H55    H     0.05490   0.10990   0.36903   0.01267  Uiso   1.00
H56    H     0.26420   0.33410   0.40483   0.01267  Uiso   1.00
H57    H     0.18890   0.39980   0.37633   0.01267  Uiso   1.00
H58    H     0.23790   0.02360   0.38823   0.01267  Uiso   1.00
H59    H     0.48800   0.11710   0.45843   0.01267  Uiso   1.00
H60    H     0.15260   0.84830   0.48773   0.01267  Uiso   1.00
H61    H     0.05010   0.45800   0.55427   0.01267  Uiso   1.00
H62    H     0.85100   0.22000   0.54177   0.01267  Uiso   1.00
H63    H     0.87060   0.22780   0.43447   0.01267  Uiso   1.00
H64    H     0.12270   0.57680   0.49957   0.01267  Uiso   1.00
H65    H     0.23710   0.66960   0.33297   0.01267  Uiso   1.00
H66    H     0.15530   0.53440   0.29257   0.01267  Uiso   1.00
H67    H     0.89010   0.94500   0.70237   0.01267  Uiso   1.00
H68    H     0.66590   0.93010   0.73817   0.01267  Uiso   1.00
H69    H     0.60020   0.78910   0.70967   0.01267  Uiso   1.00
H70    H     0.97640   0.21430   0.72157   0.01267  Uiso   1.00
H71    H     0.88290   0.37090   0.79177   0.01267  Uiso   1.00
H72    H     0.15170   0.30430   0.82107   0.01267  Uiso   1.00
C1     C     0.98350   0.39560   0.20160   0.01267  Uiso   1.00
C2     C     0.98860   0.39970   0.13590   0.01267  Uiso   1.00
C3     C     0.05200   0.39130   0.10770   0.01267  Uiso   1.00
C4     C     0.10570   0.37530   0.14330   0.01267  Uiso   1.00
C5     C     0.09360   0.36890   0.20800   0.01267  Uiso   1.00
C6     C     0.91700   0.40570   0.23650   0.01267  Uiso   1.00
C7     C     0.86970   0.43880   0.20920   0.01267  Uiso   1.00
C8     C     0.81270   0.44870   0.24420   0.01267  Uiso   1.00
C9     C     0.80170   0.42630   0.30870   0.01267  Uiso   1.00
C10    C     0.85150   0.39470   0.33210   0.01267  Uiso   1.00
C11    C     0.05980   0.39570   0.03660   0.01267  Uiso   1.00
C12    C     0.76540   0.49070   0.21250   0.01267  Uiso   1.00
C13    C     0.21260   0.04390   0.98590   0.01267  Uiso   1.00
C14    C     0.16940   0.08380   0.96360   0.01267  Uiso   1.00
C15    C     0.21340   0.16600   0.94040   0.01267  Uiso   1.00
C16    C     0.30170   0.20740   0.94090   0.01267  Uiso   1.00
C17    C     0.34050   0.16180   0.96010   0.01267  Uiso   1.00
C18    C     0.16820   0.21000   0.91570   0.01267  Uiso   1.00
C19    C     0.41210   0.01650   0.86827   0.01267  Uiso   1.00
C20    C     0.41110   0.01140   0.80257   0.01267  Uiso   1.00
C21    C     0.33930   0.94800   0.77437   0.01267  Uiso   1.00
C22    C     0.26960   0.89430   0.80997   0.01267  Uiso   1.00
C23    C     0.27530   0.90640   0.87467   0.01267  Uiso   1.00
C24    C     0.48870   0.08300   0.90317   0.01267  Uiso   1.00
C25    C     0.56910   0.13030   0.87587   0.01267  Uiso   1.00
C26    C     0.63600   0.18730   0.91087   0.01267  Uiso   1.00
C27    C     0.62460   0.19830   0.97537   0.01267  Uiso   1.00
C28    C     0.54320   0.14850   0.99877   0.01267  Uiso   1.00
C29    C     0.33590   0.94020   0.70327   0.01267  Uiso   1.00
C30    C     0.72530   0.23460   0.87917   0.01267  Uiso   1.00
C31    C     0.83130   0.78740   0.65257   0.01267  Uiso   1.00
C32    C     0.91440   0.83060   0.63027   0.01267  Uiso   1.00
C33    C     0.95260   0.78660   0.60707   0.01267  Uiso   1.00
C34    C     0.90570   0.69830   0.60757   0.01267  Uiso   1.00
C35    C     0.82130   0.65950   0.62677   0.01267  Uiso   1.00
C36    C     0.04180   0.83180   0.58237   0.01267  Uiso   1.00
C37    C     0.60440   0.58790   0.53493   0.01267  Uiso   1.00
C38    C     0.60030   0.58890   0.46923   0.01267  Uiso   1.00
C39    C     0.60870   0.66070   0.44103   0.01267  Uiso   1.00
C40    C     0.62470   0.73040   0.47663   0.01267  Uiso   1.00
C41    C     0.63110   0.72470   0.54133   0.01267  Uiso   1.00
C42    C     0.59430   0.51130   0.56983   0.01267  Uiso   1.00
C43    C     0.56120   0.43090   0.54253   0.01267  Uiso   1.00
C44    C     0.55130   0.36400   0.57753   0.01267  Uiso   1.00
C45    C     0.57370   0.37540   0.64203   0.01267  Uiso   1.00
C46    C     0.60530   0.45680   0.66543   0.01267  Uiso   1.00
C47    C     0.60430   0.66410   0.36993   0.01267  Uiso   1.00
C48    C     0.50930   0.27470   0.54583   0.01267  Uiso   1.00
C49    C     0.95610   0.16870   0.31923   0.01267  Uiso   1.00
C50    C     0.91620   0.08560   0.29693   0.01267  Uiso   1.00
C51    C     0.83400   0.04740   0.27373   0.01267  Uiso   1.00
C52    C     0.79260   0.09430   0.27423   0.01267  Uiso   1.00
C53    C     0.83820   0.17870   0.29343   0.01267  Uiso   1.00
C54    C     0.79000   0.95820   0.24903   0.01267  Uiso   1.00
C55    C     0.58790   0.60440   0.79840   0.01267  Uiso   1.00
C56    C     0.58890   0.60030   0.86410   0.01267  Uiso   1.00
C57    C     0.66070   0.60870   0.89230   0.01267  Uiso   1.00
C58    C     0.73040   0.62470   0.85670   0.01267  Uiso   1.00
C59    C     0.72470   0.63110   0.79200   0.01267  Uiso   1.00
C60    C     0.51130   0.59430   0.76350   0.01267  Uiso   1.00
C61    C     0.43090   0.56120   0.79080   0.01267  Uiso   1.00
C62    C     0.36400   0.55130   0.75580   0.01267  Uiso   1.00
C63    C     0.37540   0.57370   0.69130   0.01267  Uiso   1.00
C64    C     0.45680   0.60530   0.66790   0.01267  Uiso   1.00
C65    C     0.66410   0.60430   0.96340   0.01267  Uiso   1.00
C66    C     0.27470   0.50930   0.78750   0.01267  Uiso   1.00
C67    C     0.16870   0.95610   0.01410   0.01267  Uiso   1.00
C68    C     0.08560   0.91620   0.03640   0.01267  Uiso   1.00
C69    C     0.04740   0.83400   0.05960   0.01267  Uiso   1.00
C70    C     0.09430   0.79260   0.05910   0.01267  Uiso   1.00
C71    C     0.17870   0.83820   0.03990   0.01267  Uiso   1.00
C72    C     0.95820   0.79000   0.08430   0.01267  Uiso   1.00
C73    C     0.39560   0.98350   0.13173   0.01267  Uiso   1.00
C74    C     0.39970   0.98860   0.19743   0.01267  Uiso   1.00
C75    C     0.39130   0.05200   0.22563   0.01267  Uiso   1.00
C76    C     0.37530   0.10570   0.19003   0.01267  Uiso   1.00
C77    C     0.36890   0.09360   0.12533   0.01267  Uiso   1.00
C78    C     0.40570   0.91700   0.09683   0.01267  Uiso   1.00
C79    C     0.43880   0.86970   0.12413   0.01267  Uiso   1.00
C80    C     0.44870   0.81270   0.08913   0.01267  Uiso   1.00
C81    C     0.42630   0.80170   0.02463   0.01267  Uiso   1.00
C82    C     0.39470   0.85150   0.00123   0.01267  Uiso   1.00
C83    C     0.39570   0.05980   0.29673   0.01267  Uiso   1.00
C84    C     0.49070   0.76540   0.12083   0.01267  Uiso   1.00
C85    C     0.04390   0.21260   0.34743   0.01267  Uiso   1.00
C86    C     0.08380   0.16940   0.36973   0.01267  Uiso   1.00
C87    C     0.16600   0.21340   0.39293   0.01267  Uiso   1.00
C88    C     0.20740   0.30170   0.39243   0.01267  Uiso   1.00
C89    C     0.16180   0.34050   0.37323   0.01267  Uiso   1.00
C90    C     0.21000   0.16820   0.41763   0.01267  Uiso   1.00
C91    C     0.01650   0.41210   0.46507   0.01267  Uiso   1.00
C92    C     0.01140   0.41110   0.53077   0.01267  Uiso   1.00
C93    C     0.94800   0.33930   0.55897   0.01267  Uiso   1.00
C94    C     0.89430   0.26960   0.52337   0.01267  Uiso   1.00
C95    C     0.90640   0.27530   0.45867   0.01267  Uiso   1.00
C96    C     0.08300   0.48870   0.43017   0.01267  Uiso   1.00
C97    C     0.13030   0.56910   0.45747   0.01267  Uiso   1.00
C98    C     0.18730   0.63600   0.42247   0.01267  Uiso   1.00
C99    C     0.19830   0.62460   0.35797   0.01267  Uiso   1.00
C100   C     0.14850   0.54320   0.33457   0.01267  Uiso   1.00
C101   C     0.94020   0.33590   0.63007   0.01267  Uiso   1.00
C102   C     0.23460   0.72530   0.45417   0.01267  Uiso   1.00
C103   C     0.78740   0.83130   0.68077   0.01267  Uiso   1.00
C104   C     0.83060   0.91440   0.70307   0.01267  Uiso   1.00
C105   C     0.78660   0.95260   0.72627   0.01267  Uiso   1.00
C106   C     0.69830   0.90570   0.72577   0.01267  Uiso   1.00
C107   C     0.65950   0.82130   0.70657   0.01267  Uiso   1.00
C108   C     0.83180   0.04180   0.75097   0.01267  Uiso   1.00
N1     N     0.03380   0.37840   0.23690   0.01267  Uiso   1.00
N2     N     0.90890   0.38480   0.29910   0.01267  Uiso   1.00
N3     N     0.30010   0.08250   0.98260   0.01267  Uiso   1.00
N4     N     0.34460   0.96620   0.90357   0.01267  Uiso   1.00
N5     N     0.47590   0.09110   0.96577   0.01267  Uiso   1.00
N6     N     0.78240   0.69990   0.64927   0.01267  Uiso   1.00
N7     N     0.62160   0.65540   0.57023   0.01267  Uiso   1.00
N8     N     0.61520   0.52410   0.63243   0.01267  Uiso   1.00
N9     N     0.91750   0.21760   0.31593   0.01267  Uiso   1.00
N10    N     0.65540   0.62160   0.76310   0.01267  Uiso   1.00
N11    N     0.52410   0.61520   0.70090   0.01267  Uiso   1.00
N12    N     0.21760   0.91750   0.01740   0.01267  Uiso   1.00
N13    N     0.37840   0.03380   0.09643   0.01267  Uiso   1.00
N14    N     0.38480   0.90890   0.03423   0.01267  Uiso   1.00
N15    N     0.08250   0.30010   0.35073   0.01267  Uiso   1.00
N16    N     0.96620   0.34460   0.42977   0.01267  Uiso   1.00
N17    N     0.09110   0.47590   0.36757   0.01267  Uiso   1.00
N18    N     0.69990   0.78240   0.68407   0.01267  Uiso   1.00
O1     O     0.12590   0.39540   0.01540   0.01267  Uiso   1.00
O2     O     0.00760   0.39910   0.00520   0.01267  Uiso   1.00
O3     O     0.70950   0.49600   0.24550   0.01267  Uiso   1.00
O4     O     0.78550   0.51450   0.15890   0.01267  Uiso   1.00
O5     O     0.20330   0.29040   0.92480   0.01267  Uiso   1.00
O6     O     0.09720   0.16255   0.88875   0.01267  Uiso   1.00
O7     O     0.02799   0.27850   0.91989   0.01267  Uiso   1.00
O8     O     0.07366   0.43186   0.86685   0.01267  Uiso   1.00
O9     O     0.88100   0.20710   0.85190   0.01267  Uiso   1.00
O10    O     0.93090   0.46310   0.91640   0.01267  Uiso   1.00
O11    O     0.86780   0.22620   0.99460   0.01267  Uiso   1.00
O12    O     0.91990   0.07900   0.91450   0.01267  Uiso   1.00
O13    O     0.30480   0.45020   0.96870   0.01267  Uiso   1.00
O14    O     0.22280   0.54990   0.94550   0.01267  Uiso   1.00
O15    O     0.26950   0.87410   0.68207   0.01267  Uiso   1.00
O16    O     0.39150   0.99240   0.67187   0.01267  Uiso   1.00
O17    O     0.78650   0.29050   0.91217   0.01267  Uiso   1.00
O18    O     0.72900   0.21450   0.82557   0.01267  Uiso   1.00
O19    O     0.08710   0.79670   0.59147   0.01267  Uiso   1.00
O20    O     0.06535   0.90280   0.55542   0.01267  Uiso   1.00
O21    O     0.25051   0.97201   0.58656   0.01267  Uiso   1.00
O22    O     0.35820   0.92634   0.53352   0.01267  Uiso   1.00
O23    O     0.32610   0.11900   0.51857   0.01267  Uiso   1.00
O24    O     0.53220   0.06910   0.58307   0.01267  Uiso   1.00
O25    O     0.35840   0.13220   0.66127   0.01267  Uiso   1.00
O26    O     0.15910   0.08010   0.58117   0.01267  Uiso   1.00
O27    O     0.14540   0.69520   0.63537   0.01267  Uiso   1.00
O28    O     0.32710   0.77720   0.61217   0.01267  Uiso   1.00
O29    O     0.60460   0.73050   0.34873   0.01267  Uiso   1.00
O30    O     0.60090   0.60850   0.33853   0.01267  Uiso   1.00
O31    O     0.50400   0.21350   0.57883   0.01267  Uiso   1.00
O32    O     0.48550   0.27100   0.49223   0.01267  Uiso   1.00
O33    O     0.70960   0.91290   0.25813   0.01267  Uiso   1.00
O34    O     0.83745   0.93465   0.22208   0.01267  Uiso   1.00
O35    O     0.72150   0.74949   0.25322   0.01267  Uiso   1.00
O36    O     0.56814   0.64180   0.20018   0.01267  Uiso   1.00
O37    O     0.79290   0.67390   0.18523   0.01267  Uiso   1.00
O38    O     0.53690   0.46780   0.24973   0.01267  Uiso   1.00
O39    O     0.77380   0.64160   0.32793   0.01267  Uiso   1.00
O40    O     0.92100   0.84090   0.24783   0.01267  Uiso   1.00
O41    O     0.54980   0.85460   0.30203   0.01267  Uiso   1.00
O42    O     0.45010   0.67290   0.27883   0.01267  Uiso   1.00
O43    O     0.73050   0.60460   0.98460   0.01267  Uiso   1.00
O44    O     0.60850   0.60090   0.99480   0.01267  Uiso   1.00
O45    O     0.21350   0.50400   0.75450   0.01267  Uiso   1.00
O46    O     0.27100   0.48550   0.84110   0.01267  Uiso   1.00
O47    O     0.91290   0.70960   0.07520   0.01267  Uiso   1.00
O48    O     0.93465   0.83745   0.11125   0.01267  Uiso   1.00
O49    O     0.74949   0.72150   0.08011   0.01267  Uiso   1.00
O50    O     0.64180   0.56814   0.13315   0.01267  Uiso   1.00
O51    O     0.67390   0.79290   0.14810   0.01267  Uiso   1.00
O52    O     0.46780   0.53690   0.08360   0.01267  Uiso   1.00
O53    O     0.64160   0.77380   0.00540   0.01267  Uiso   1.00
O54    O     0.84090   0.92100   0.08550   0.01267  Uiso   1.00
O55    O     0.85460   0.54980   0.03130   0.01267  Uiso   1.00
O56    O     0.67290   0.45010   0.05450   0.01267  Uiso   1.00
O57    O     0.39540   0.12590   0.31793   0.01267  Uiso   1.00
O58    O     0.39910   0.00760   0.32813   0.01267  Uiso   1.00
O59    O     0.49600   0.70950   0.08783   0.01267  Uiso   1.00
O60    O     0.51450   0.78550   0.17443   0.01267  Uiso   1.00
O61    O     0.29040   0.20330   0.40853   0.01267  Uiso   1.00
O62    O     0.16255   0.09720   0.44458   0.01267  Uiso   1.00
O63    O     0.27850   0.02799   0.41344   0.01267  Uiso   1.00
O64    O     0.43186   0.07366   0.46648   0.01267  Uiso   1.00
O65    O     0.20710   0.88100   0.48143   0.01267  Uiso   1.00
O66    O     0.46310   0.93090   0.41693   0.01267  Uiso   1.00
O67    O     0.22620   0.86780   0.33873   0.01267  Uiso   1.00
O68    O     0.07900   0.91990   0.41883   0.01267  Uiso   1.00
O69    O     0.45020   0.30480   0.36463   0.01267  Uiso   1.00
O70    O     0.54990   0.22280   0.38783   0.01267  Uiso   1.00
O71    O     0.87410   0.26950   0.65127   0.01267  Uiso   1.00
O72    O     0.99240   0.39150   0.66147   0.01267  Uiso   1.00
O73    O     0.29050   0.78650   0.42117   0.01267  Uiso   1.00
O74    O     0.21450   0.72900   0.50777   0.01267  Uiso   1.00
O75    O     0.79670   0.08710   0.74187   0.01267  Uiso   1.00
O76    O     0.90280   0.06535   0.77792   0.01267  Uiso   1.00
O77    O     0.97201   0.25051   0.74678   0.01267  Uiso   1.00
O78    O     0.92634   0.35820   0.79982   0.01267  Uiso   1.00
O79    O     0.11900   0.32610   0.81477   0.01267  Uiso   1.00
O80    O     0.06910   0.53220   0.75027   0.01267  Uiso   1.00
O81    O     0.13220   0.35840   0.67207   0.01267  Uiso   1.00
O82    O     0.08010   0.15910   0.75217   0.01267  Uiso   1.00
O83    O     0.69520   0.14540   0.69797   0.01267  Uiso   1.00
O84    O     0.77720   0.32710   0.72117   0.01267  Uiso   1.00
