data_EDOVEA_charged
_audit_creation_date              2014-07-02
_audit_creation_method            'Materials Studio'
_symmetry_space_group_name_H-M    'P1'
_symmetry_Int_Tables_number       1
_symmetry_cell_setting            triclinic
loop_
_symmetry_equiv_pos_as_xyz
  x,y,z
_cell_length_a                    17.9869
_cell_length_b                    17.9869
_cell_length_c                    21.3482
_cell_angle_alpha                 90.0000
_cell_angle_beta                  90.0000
_cell_angle_gamma                 120.0000
loop_
_atom_site_label
_atom_site_type_symbol
_atom_site_fract_x
_atom_site_fract_y
_atom_site_fract_z
_atom_site_U_iso_or_equiv
_atom_site_adp_type
_atom_site_occupancy
Gd1    Gd    0.82725   0.59834   0.91222   0.01267  Uiso   1.00
Gd2    Gd    0.93473   0.59857   0.75526   0.01267  Uiso   1.00
Gd3    Gd    0.77109   0.17275   0.57889   0.01267  Uiso   1.00
Gd4    Gd    0.66384   0.06527   0.42193   0.01267  Uiso   1.00
Gd5    Gd    0.40166   0.22891   0.24555   0.01267  Uiso   1.00
Gd6    Gd    0.40143   0.33616   0.08859   0.01267  Uiso   1.00
Gd7    Gd    0.22891   0.40166   0.08778   0.01267  Uiso   1.00
Gd8    Gd    0.33616   0.40143   0.24474   0.01267  Uiso   1.00
Gd9    Gd    0.59834   0.82725   0.42111   0.01267  Uiso   1.00
Gd10   Gd    0.59857   0.93473   0.57807   0.01267  Uiso   1.00
Gd11   Gd    0.17275   0.77109   0.75445   0.01267  Uiso   1.00
Gd12   Gd    0.06527   0.66384   0.91141   0.01267  Uiso   1.00
Gd13   Gd    1.00000   0.81192   0.83333   0.01267  Uiso   1.00
Gd14   Gd    0.81192   1.00000   0.50000   0.01267  Uiso   1.00
Gd15   Gd    0.18808   0.18808   0.16667   0.01267  Uiso   1.00
Zn1    Zn    0.35106   0.35106   0.66667   0.01267  Uiso   1.00
Zn2    Zn    0.00000   0.64894   0.33333   0.01267  Uiso   1.00
Zn3    Zn    0.64894   1.00000   0.00000   0.01267  Uiso   1.00
H1     H     0.11000   0.05590   0.70250   0.01267  Uiso   1.00
H2     H     0.40190   0.21530   0.70970   0.01267  Uiso   1.00
H3     H     0.33780   0.07420   0.73980   0.01267  Uiso   1.00
H4     H     0.87100   0.64730   0.23200   0.01267  Uiso   1.00
H5     H     0.84920   0.63000   0.12490   0.01267  Uiso   1.00
H6     H     0.04700   0.58740   0.11420   0.01267  Uiso   1.00
H7     H     0.12950   0.55000   0.16770   0.01267  Uiso   1.00
H8     H     0.23670   0.56990   0.33410   0.01267  Uiso   1.00
H9     H     0.15460   0.62300   0.37490   0.01267  Uiso   1.00
H10    H     0.84460   0.68530   0.78980   0.01267  Uiso   1.00
H11    H     0.02990   0.77720   0.71180   0.01267  Uiso   1.00
H12    H     0.91930   0.52010   0.87730   0.01267  Uiso   1.00
H13    H     0.94590   0.89000   0.36917   0.01267  Uiso   1.00
H14    H     0.81340   0.59810   0.37637   0.01267  Uiso   1.00
H15    H     0.73640   0.66220   0.40647   0.01267  Uiso   1.00
H16    H     0.77630   0.12900   0.89867   0.01267  Uiso   1.00
H17    H     0.78080   0.15080   0.79157   0.01267  Uiso   1.00
H18    H     0.54040   0.95300   0.78087   0.01267  Uiso   1.00
H19    H     0.42050   0.87050   0.83437   0.01267  Uiso   1.00
H20    H     0.33320   0.76330   0.00077   0.01267  Uiso   1.00
H21    H     0.46840   0.84540   0.04157   0.01267  Uiso   1.00
H22    H     0.84070   0.15540   0.45647   0.01267  Uiso   1.00
H23    H     0.74730   0.97010   0.37847   0.01267  Uiso   1.00
H24    H     0.60080   0.08070   0.54397   0.01267  Uiso   1.00
H25    H     0.94410   0.05410   0.03583   0.01267  Uiso   1.00
H26    H     0.78470   0.18660   0.04303   0.01267  Uiso   1.00
H27    H     0.92580   0.26360   0.07313   0.01267  Uiso   1.00
H28    H     0.35270   0.22370   0.56533   0.01267  Uiso   1.00
H29    H     0.37000   0.21920   0.45823   0.01267  Uiso   1.00
H30    H     0.41260   0.45960   0.44753   0.01267  Uiso   1.00
H31    H     0.45000   0.57950   0.50103   0.01267  Uiso   1.00
H32    H     0.43010   0.66680   0.66743   0.01267  Uiso   1.00
H33    H     0.37700   0.53160   0.70823   0.01267  Uiso   1.00
H34    H     0.31470   0.15930   0.12313   0.01267  Uiso   1.00
H35    H     0.22280   0.25270   0.04513   0.01267  Uiso   1.00
H36    H     0.47990   0.39920   0.21063   0.01267  Uiso   1.00
H37    H     0.05410   0.94410   0.29750   0.01267  Uiso   1.00
H38    H     0.18660   0.78470   0.29030   0.01267  Uiso   1.00
H39    H     0.26360   0.92580   0.26020   0.01267  Uiso   1.00
H40    H     0.22370   0.35270   0.76800   0.01267  Uiso   1.00
H41    H     0.21920   0.37000   0.87510   0.01267  Uiso   1.00
H42    H     0.45960   0.41260   0.88580   0.01267  Uiso   1.00
H43    H     0.57950   0.45000   0.83230   0.01267  Uiso   1.00
H44    H     0.66680   0.43010   0.66590   0.01267  Uiso   1.00
H45    H     0.53160   0.37700   0.62510   0.01267  Uiso   1.00
H46    H     0.15930   0.31470   0.21020   0.01267  Uiso   1.00
H47    H     0.25270   0.22280   0.28820   0.01267  Uiso   1.00
H48    H     0.39920   0.47990   0.12270   0.01267  Uiso   1.00
H49    H     0.05590   0.11000   0.63083   0.01267  Uiso   1.00
H50    H     0.21530   0.40190   0.62363   0.01267  Uiso   1.00
H51    H     0.07420   0.33780   0.59353   0.01267  Uiso   1.00
H52    H     0.64730   0.87100   0.10133   0.01267  Uiso   1.00
H53    H     0.63000   0.84920   0.20843   0.01267  Uiso   1.00
H54    H     0.58740   0.04700   0.21913   0.01267  Uiso   1.00
H55    H     0.55000   0.12950   0.16563   0.01267  Uiso   1.00
H56    H     0.56990   0.23670   0.99923   0.01267  Uiso   1.00
H57    H     0.62300   0.15460   0.95843   0.01267  Uiso   1.00
H58    H     0.68530   0.84460   0.54353   0.01267  Uiso   1.00
H59    H     0.77720   0.02990   0.62153   0.01267  Uiso   1.00
H60    H     0.52010   0.91930   0.45603   0.01267  Uiso   1.00
H61    H     0.89000   0.94590   0.96417   0.01267  Uiso   1.00
H62    H     0.59810   0.81340   0.95697   0.01267  Uiso   1.00
H63    H     0.66220   0.73640   0.92687   0.01267  Uiso   1.00
H64    H     0.12900   0.77630   0.43467   0.01267  Uiso   1.00
H65    H     0.15080   0.78080   0.54177   0.01267  Uiso   1.00
H66    H     0.95300   0.54040   0.55247   0.01267  Uiso   1.00
H67    H     0.87050   0.42050   0.49897   0.01267  Uiso   1.00
H68    H     0.76330   0.33320   0.33257   0.01267  Uiso   1.00
H69    H     0.84540   0.46840   0.29177   0.01267  Uiso   1.00
H70    H     0.15540   0.84070   0.87687   0.01267  Uiso   1.00
H71    H     0.97010   0.74730   0.95487   0.01267  Uiso   1.00
H72    H     0.08070   0.60080   0.78937   0.01267  Uiso   1.00
C1     C     0.16900   0.95840   0.74970   0.01267  Uiso   1.00
C2     C     0.21390   0.04860   0.72540   0.01267  Uiso   1.00
C3     C     0.16970   0.08660   0.70280   0.01267  Uiso   1.00
C4     C     0.21250   0.16980   0.68060   0.01267  Uiso   1.00
C5     C     0.34260   0.18150   0.70690   0.01267  Uiso   1.00
C6     C     0.30490   0.09780   0.72640   0.01267  Uiso   1.00
C7     C     0.24210   0.51710   0.21700   0.01267  Uiso   1.00
C8     C     0.93660   0.60050   0.03840   0.01267  Uiso   1.00
C9     C     0.90560   0.63340   0.20820   0.01267  Uiso   1.00
C10    C     0.89320   0.62490   0.14360   0.01267  Uiso   1.00
C11    C     0.94670   0.60870   0.10810   0.01267  Uiso   1.00
C12    C     0.00990   0.59850   0.13750   0.01267  Uiso   1.00
C13    C     0.01660   0.60510   0.20190   0.01267  Uiso   1.00
C14    C     0.08140   0.59390   0.23680   0.01267  Uiso   1.00
C15    C     0.13390   0.56320   0.21020   0.01267  Uiso   1.00
C16    C     0.18890   0.55310   0.24580   0.01267  Uiso   1.00
C17    C     0.19770   0.57560   0.30880   0.01267  Uiso   1.00
C18    C     0.14750   0.60640   0.33300   0.01267  Uiso   1.00
C19    C     0.78940   0.83100   0.41637   0.01267  Uiso   1.00
C20    C     0.83470   0.78610   0.39207   0.01267  Uiso   1.00
C21    C     0.91690   0.83030   0.36947   0.01267  Uiso   1.00
C22    C     0.95730   0.78750   0.34727   0.01267  Uiso   1.00
C23    C     0.83890   0.65740   0.37357   0.01267  Uiso   1.00
C24    C     0.79290   0.69510   0.39307   0.01267  Uiso   1.00
C25    C     0.27500   0.75790   0.88367   0.01267  Uiso   1.00
C26    C     0.66390   0.06340   0.70507   0.01267  Uiso   1.00
C27    C     0.72780   0.09440   0.87487   0.01267  Uiso   1.00
C28    C     0.73170   0.10680   0.81027   0.01267  Uiso   1.00
C29    C     0.66200   0.05330   0.77477   0.01267  Uiso   1.00
C30    C     0.58860   0.99010   0.80417   0.01267  Uiso   1.00
C31    C     0.58850   0.98340   0.86857   0.01267  Uiso   1.00
C32    C     0.51250   0.91860   0.90347   0.01267  Uiso   1.00
C33    C     0.42930   0.86610   0.87687   0.01267  Uiso   1.00
C34    C     0.36420   0.81110   0.91247   0.01267  Uiso   1.00
C35    C     0.37790   0.80230   0.97547   0.01267  Uiso   1.00
C36    C     0.45890   0.85250   0.99967   0.01267  Uiso   1.00
C37    C     0.04160   0.21060   0.08303   0.01267  Uiso   1.00
C38    C     0.95140   0.16530   0.05873   0.01267  Uiso   1.00
C39    C     0.91340   0.08310   0.03613   0.01267  Uiso   1.00
C40    C     0.83020   0.04270   0.01393   0.01267  Uiso   1.00
C41    C     0.81850   0.16110   0.04023   0.01267  Uiso   1.00
C42    C     0.90220   0.20710   0.05973   0.01267  Uiso   1.00
C43    C     0.48290   0.72500   0.55033   0.01267  Uiso   1.00
C44    C     0.39950   0.33610   0.37173   0.01267  Uiso   1.00
C45    C     0.36660   0.27220   0.54153   0.01267  Uiso   1.00
C46    C     0.37510   0.26830   0.47693   0.01267  Uiso   1.00
C47    C     0.39130   0.33800   0.44143   0.01267  Uiso   1.00
C48    C     0.40150   0.41140   0.47083   0.01267  Uiso   1.00
C49    C     0.39490   0.41150   0.53523   0.01267  Uiso   1.00
C50    C     0.40610   0.48750   0.57013   0.01267  Uiso   1.00
C51    C     0.43680   0.57070   0.54353   0.01267  Uiso   1.00
C52    C     0.44690   0.63580   0.57913   0.01267  Uiso   1.00
C53    C     0.42440   0.62210   0.64213   0.01267  Uiso   1.00
C54    C     0.39360   0.54110   0.66633   0.01267  Uiso   1.00
C55    C     0.21060   0.04160   0.25030   0.01267  Uiso   1.00
C56    C     0.16530   0.95140   0.27460   0.01267  Uiso   1.00
C57    C     0.08310   0.91340   0.29720   0.01267  Uiso   1.00
C58    C     0.04270   0.83020   0.31940   0.01267  Uiso   1.00
C59    C     0.16110   0.81850   0.29310   0.01267  Uiso   1.00
C60    C     0.20710   0.90220   0.27360   0.01267  Uiso   1.00
C61    C     0.72500   0.48290   0.78300   0.01267  Uiso   1.00
C62    C     0.33610   0.39950   0.96160   0.01267  Uiso   1.00
C63    C     0.27220   0.36660   0.79180   0.01267  Uiso   1.00
C64    C     0.26830   0.37510   0.85640   0.01267  Uiso   1.00
C65    C     0.33800   0.39130   0.89190   0.01267  Uiso   1.00
C66    C     0.41140   0.40150   0.86250   0.01267  Uiso   1.00
C67    C     0.41150   0.39490   0.79810   0.01267  Uiso   1.00
C68    C     0.48750   0.40610   0.76320   0.01267  Uiso   1.00
C69    C     0.57070   0.43680   0.78980   0.01267  Uiso   1.00
C70    C     0.63580   0.44690   0.75420   0.01267  Uiso   1.00
C71    C     0.62210   0.42440   0.69120   0.01267  Uiso   1.00
C72    C     0.54110   0.39360   0.66700   0.01267  Uiso   1.00
C73    C     0.95840   0.16900   0.58363   0.01267  Uiso   1.00
C74    C     0.04860   0.21390   0.60793   0.01267  Uiso   1.00
C75    C     0.08660   0.16970   0.63053   0.01267  Uiso   1.00
C76    C     0.16980   0.21250   0.65273   0.01267  Uiso   1.00
C77    C     0.18150   0.34260   0.62643   0.01267  Uiso   1.00
C78    C     0.09780   0.30490   0.60693   0.01267  Uiso   1.00
C79    C     0.51710   0.24210   0.11633   0.01267  Uiso   1.00
C80    C     0.60050   0.93660   0.29493   0.01267  Uiso   1.00
C81    C     0.63340   0.90560   0.12513   0.01267  Uiso   1.00
C82    C     0.62490   0.89320   0.18973   0.01267  Uiso   1.00
C83    C     0.60870   0.94670   0.22523   0.01267  Uiso   1.00
C84    C     0.59850   0.00990   0.19583   0.01267  Uiso   1.00
C85    C     0.60510   0.01660   0.13143   0.01267  Uiso   1.00
C86    C     0.59390   0.08140   0.09653   0.01267  Uiso   1.00
C87    C     0.56320   0.13390   0.12313   0.01267  Uiso   1.00
C88    C     0.55310   0.18890   0.08753   0.01267  Uiso   1.00
C89    C     0.57560   0.19770   0.02453   0.01267  Uiso   1.00
C90    C     0.60640   0.14750   0.00033   0.01267  Uiso   1.00
C91    C     0.83100   0.78940   0.91697   0.01267  Uiso   1.00
C92    C     0.78610   0.83470   0.94127   0.01267  Uiso   1.00
C93    C     0.83030   0.91690   0.96387   0.01267  Uiso   1.00
C94    C     0.78750   0.95730   0.98607   0.01267  Uiso   1.00
C95    C     0.65740   0.83890   0.95977   0.01267  Uiso   1.00
C96    C     0.69510   0.79290   0.94027   0.01267  Uiso   1.00
C97    C     0.75790   0.27500   0.44967   0.01267  Uiso   1.00
C98    C     0.06340   0.66390   0.62827   0.01267  Uiso   1.00
C99    C     0.09440   0.72780   0.45847   0.01267  Uiso   1.00
C100   C     0.10680   0.73170   0.52307   0.01267  Uiso   1.00
C101   C     0.05330   0.66200   0.55857   0.01267  Uiso   1.00
C102   C     0.99010   0.58860   0.52917   0.01267  Uiso   1.00
C103   C     0.98340   0.58850   0.46477   0.01267  Uiso   1.00
C104   C     0.91860   0.51250   0.42987   0.01267  Uiso   1.00
C105   C     0.86610   0.42930   0.45647   0.01267  Uiso   1.00
C106   C     0.81110   0.36420   0.42087   0.01267  Uiso   1.00
C107   C     0.80230   0.37790   0.35787   0.01267  Uiso   1.00
C108   C     0.85250   0.45890   0.33367   0.01267  Uiso   1.00
N1     N     0.29860   0.21650   0.68430   0.01267  Uiso   1.00
N2     N     0.96560   0.62250   0.23740   0.01267  Uiso   1.00
N3     N     0.08910   0.61370   0.29920   0.01267  Uiso   1.00
N4     N     0.91790   0.70140   0.35097   0.01267  Uiso   1.00
N5     N     0.65690   0.03440   0.90407   0.01267  Uiso   1.00
N6     N     0.52460   0.91090   0.96587   0.01267  Uiso   1.00
N7     N     0.78350   0.08210   0.01763   0.01267  Uiso   1.00
N8     N     0.37750   0.34310   0.57073   0.01267  Uiso   1.00
N9     N     0.38630   0.47540   0.63253   0.01267  Uiso   1.00
N10    N     0.08210   0.78350   0.31570   0.01267  Uiso   1.00
N11    N     0.34310   0.37750   0.76260   0.01267  Uiso   1.00
N12    N     0.47540   0.38630   0.70080   0.01267  Uiso   1.00
N13    N     0.21650   0.29860   0.64903   0.01267  Uiso   1.00
N14    N     0.62250   0.96560   0.09593   0.01267  Uiso   1.00
N15    N     0.61370   0.08910   0.03413   0.01267  Uiso   1.00
N16    N     0.70140   0.91790   0.98237   0.01267  Uiso   1.00
N17    N     0.03440   0.65690   0.42927   0.01267  Uiso   1.00
N18    N     0.91090   0.52460   0.36747   0.01267  Uiso   1.00
O1     O     0.91990   0.84160   0.75338   0.01267  Uiso   1.00
O2     O     0.87810   0.67080   0.81482   0.01267  Uiso   1.00
O3     O     0.03160   0.74880   0.74649   0.01267  Uiso   1.00
O4     O     0.09720   0.93380   0.77640   0.01267  Uiso   1.00
O5     O     0.20380   0.91360   0.74160   0.01267  Uiso   1.00
O6     O     0.92540   0.56580   0.86650   0.01267  Uiso   1.00
O7     O     0.92890   0.46140   0.74990   0.01267  Uiso   1.00
O8     O     0.86740   0.63970   0.67200   0.01267  Uiso   1.00
O9     O     0.99130   0.59680   0.00670   0.01267  Uiso   1.00
O10    O     0.86900   0.59780   0.01660   0.01267  Uiso   1.00
O11    O     0.77450   0.44440   0.94440   0.01267  Uiso   1.00
O12    O     0.68720   0.54710   0.96530   0.01267  Uiso   1.00
O13    O     0.22220   0.49350   0.16010   0.01267  Uiso   1.00
O14    O     0.29360   0.50850   0.24910   0.01267  Uiso   1.00
O15    O     0.92170   0.08010   0.42005   0.01267  Uiso   1.00
O16    O     0.79270   0.12190   0.48149   0.01267  Uiso   1.00
O17    O     0.71720   0.96840   0.41316   0.01267  Uiso   1.00
O18    O     0.83660   0.90280   0.44307   0.01267  Uiso   1.00
O19    O     0.70980   0.79620   0.40827   0.01267  Uiso   1.00
O20    O     0.64040   0.07460   0.53317   0.01267  Uiso   1.00
O21    O     0.53250   0.07110   0.41657   0.01267  Uiso   1.00
O22    O     0.77230   0.13260   0.33867   0.01267  Uiso   1.00
O23    O     0.60550   0.00870   0.67337   0.01267  Uiso   1.00
O24    O     0.72880   0.13100   0.68327   0.01267  Uiso   1.00
O25    O     0.66990   0.22550   0.61107   0.01267  Uiso   1.00
O26    O     0.85990   0.31280   0.63197   0.01267  Uiso   1.00
O27    O     0.27130   0.77780   0.82677   0.01267  Uiso   1.00
O28    O     0.21490   0.70640   0.91577   0.01267  Uiso   1.00
O29    O     0.15840   0.07830   0.08671   0.01267  Uiso   1.00
O30    O     0.32920   0.20730   0.14815   0.01267  Uiso   1.00
O31    O     0.25120   0.28280   0.07982   0.01267  Uiso   1.00
O32    O     0.06620   0.16340   0.10973   0.01267  Uiso   1.00
O33    O     0.08640   0.29020   0.07493   0.01267  Uiso   1.00
O34    O     0.43420   0.35960   0.19983   0.01267  Uiso   1.00
O35    O     0.53860   0.46750   0.08323   0.01267  Uiso   1.00
O36    O     0.36030   0.22770   0.00533   0.01267  Uiso   1.00
O37    O     0.40320   0.39450   0.34003   0.01267  Uiso   1.00
O38    O     0.40220   0.27120   0.34993   0.01267  Uiso   1.00
O39    O     0.55560   0.33010   0.27773   0.01267  Uiso   1.00
O40    O     0.45290   0.14010   0.29863   0.01267  Uiso   1.00
O41    O     0.50650   0.72870   0.49343   0.01267  Uiso   1.00
O42    O     0.49150   0.78510   0.58243   0.01267  Uiso   1.00
O43    O     0.07830   0.15840   0.24662   0.01267  Uiso   1.00
O44    O     0.20730   0.32920   0.18518   0.01267  Uiso   1.00
O45    O     0.28280   0.25120   0.25351   0.01267  Uiso   1.00
O46    O     0.16340   0.06620   0.22360   0.01267  Uiso   1.00
O47    O     0.29020   0.08640   0.25840   0.01267  Uiso   1.00
O48    O     0.35960   0.43420   0.13350   0.01267  Uiso   1.00
O49    O     0.46750   0.53860   0.25010   0.01267  Uiso   1.00
O50    O     0.22770   0.36030   0.32800   0.01267  Uiso   1.00
O51    O     0.39450   0.40320   0.99330   0.01267  Uiso   1.00
O52    O     0.27120   0.40220   0.98340   0.01267  Uiso   1.00
O53    O     0.33010   0.55560   0.05560   0.01267  Uiso   1.00
O54    O     0.14010   0.45290   0.03470   0.01267  Uiso   1.00
O55    O     0.72870   0.50650   0.83990   0.01267  Uiso   1.00
O56    O     0.78510   0.49150   0.75090   0.01267  Uiso   1.00
O57    O     0.84160   0.91990   0.57995   0.01267  Uiso   1.00
O58    O     0.67080   0.87810   0.51851   0.01267  Uiso   1.00
O59    O     0.74880   0.03160   0.58684   0.01267  Uiso   1.00
O60    O     0.93380   0.09720   0.55693   0.01267  Uiso   1.00
O61    O     0.91360   0.20380   0.59173   0.01267  Uiso   1.00
O62    O     0.56580   0.92540   0.46683   0.01267  Uiso   1.00
O63    O     0.46140   0.92890   0.58343   0.01267  Uiso   1.00
O64    O     0.63970   0.86740   0.66133   0.01267  Uiso   1.00
O65    O     0.59680   0.99130   0.32663   0.01267  Uiso   1.00
O66    O     0.59780   0.86900   0.31673   0.01267  Uiso   1.00
O67    O     0.44440   0.77450   0.38893   0.01267  Uiso   1.00
O68    O     0.54710   0.68720   0.36803   0.01267  Uiso   1.00
O69    O     0.49350   0.22220   0.17323   0.01267  Uiso   1.00
O70    O     0.50850   0.29360   0.08423   0.01267  Uiso   1.00
O71    O     0.08010   0.92170   0.91329   0.01267  Uiso   1.00
O72    O     0.12190   0.79270   0.85185   0.01267  Uiso   1.00
O73    O     0.96840   0.71720   0.92018   0.01267  Uiso   1.00
O74    O     0.90280   0.83660   0.89027   0.01267  Uiso   1.00
O75    O     0.79620   0.70980   0.92507   0.01267  Uiso   1.00
O76    O     0.07460   0.64040   0.80017   0.01267  Uiso   1.00
O77    O     0.07110   0.53250   0.91677   0.01267  Uiso   1.00
O78    O     0.13260   0.77230   0.99467   0.01267  Uiso   1.00
O79    O     0.00870   0.60550   0.65997   0.01267  Uiso   1.00
O80    O     0.13100   0.72880   0.65007   0.01267  Uiso   1.00
O81    O     0.22550   0.66990   0.72227   0.01267  Uiso   1.00
O82    O     0.31280   0.85990   0.70137   0.01267  Uiso   1.00
O83    O     0.77780   0.27130   0.50657   0.01267  Uiso   1.00
O84    O     0.70640   0.21490   0.41757   0.01267  Uiso   1.00
