data_EGELUY_manual
_audit_creation_date              2014-07-02
_audit_creation_method            'Materials Studio'
_symmetry_space_group_name_H-M    'P1'
_symmetry_Int_Tables_number       1
_symmetry_cell_setting            triclinic
loop_
_symmetry_equiv_pos_as_xyz
  x,y,z
_cell_length_a                    16.2430
_cell_length_b                    6.6352
_cell_length_c                    13.4943
_cell_angle_alpha                 90.0000
_cell_angle_beta                  90.0000
_cell_angle_gamma                 90.0000
loop_
_atom_site_label
_atom_site_type_symbol
_atom_site_fract_x
_atom_site_fract_y
_atom_site_fract_z
_atom_site_U_iso_or_equiv
_atom_site_adp_type
_atom_site_occupancy
C1     C     0.21149   0.06495   0.77720   0.00000  Uiso   1.00
C2     C     0.28099   0.06482   0.71482   0.00000  Uiso   1.00
O3     O     0.07492   0.07414   0.91000   0.00000  Uiso   1.00
O4     O     0.41953   0.07365   0.58533   0.00000  Uiso   1.00
H5     H     0.18582   0.92219   0.80017   0.00000  Uiso   1.00
H6     H     0.30639   0.92201   0.69161   0.00000  Uiso   1.00
C7     C     0.28811   0.92714   0.27833   0.00000  Uiso   1.00
C8     C     0.21978   0.92918   0.21419   0.00000  Uiso   1.00
O9     O     0.42151   0.91473   0.41462   0.00000  Uiso   1.00
O10    O     0.08111   0.92368   0.08391   0.00000  Uiso   1.00
H11    H     0.31392   0.06915   0.30219   0.00000  Uiso   1.00
H12    H     0.19532   0.07262   0.19045   0.00000  Uiso   1.00
C13    C     0.78679   0.56495   0.22339   0.00000  Uiso   1.00
C14    C     0.71777   0.56482   0.28648   0.00000  Uiso   1.00
O15    O     0.92225   0.57284   0.08903   0.00000  Uiso   1.00
O16    O     0.57936   0.57361   0.41636   0.00000  Uiso   1.00
H17    H     0.81254   0.42214   0.20056   0.00000  Uiso   1.00
H18    H     0.69262   0.42203   0.31016   0.00000  Uiso   1.00
C19    C     0.71270   0.42712   0.72105   0.00000  Uiso   1.00
C20    C     0.78101   0.42916   0.78532   0.00000  Uiso   1.00
O21    O     0.57814   0.41468   0.58600   0.00000  Uiso   1.00
O22    O     0.91932   0.42238   0.91662   0.00000  Uiso   1.00
H23    H     0.68685   0.56911   0.69726   0.00000  Uiso   1.00
H24    H     0.80540   0.57264   0.80916   0.00000  Uiso   1.00
C25    C     0.78664   0.92809   0.22321   0.00000  Uiso   1.00
C26    C     0.71760   0.92798   0.28645   0.00000  Uiso   1.00
O27    O     0.92056   0.91857   0.08636   0.00000  Uiso   1.00
O28    O     0.57915   0.91670   0.41696   0.00000  Uiso   1.00
H29    H     0.81233   0.07085   0.20027   0.00000  Uiso   1.00
H30    H     0.69234   0.07077   0.31018   0.00000  Uiso   1.00
C31    C     0.71367   0.06398   0.72200   0.00000  Uiso   1.00
C32    C     0.78204   0.06600   0.78627   0.00000  Uiso   1.00
O33    O     0.57771   0.07195   0.58721   0.00000  Uiso   1.00
O34    O     0.91973   0.07914   0.91680   0.00000  Uiso   1.00
H35    H     0.68869   0.92045   0.69902   0.00000  Uiso   1.00
H36    H     0.80731   0.92389   0.81090   0.00000  Uiso   1.00
C37    C     0.21167   0.42811   0.77741   0.00000  Uiso   1.00
C38    C     0.28118   0.42801   0.71486   0.00000  Uiso   1.00
O39    O     0.07699   0.41722   0.91308   0.00000  Uiso   1.00
O40    O     0.41973   0.41669   0.58471   0.00000  Uiso   1.00
H41    H     0.18609   0.57086   0.80047   0.00000  Uiso   1.00
H42    H     0.30672   0.57079   0.69159   0.00000  Uiso   1.00
C43    C     0.28714   0.56392   0.27742   0.00000  Uiso   1.00
C44    C     0.21874   0.56595   0.21328   0.00000  Uiso   1.00
O45    O     0.42194   0.57195   0.41339   0.00000  Uiso   1.00
O46    O     0.08029   0.57795   0.08429   0.00000  Uiso   1.00
H47    H     0.31209   0.42045   0.30051   0.00000  Uiso   1.00
H48    H     0.19341   0.42384   0.18878   0.00000  Uiso   1.00
Al49   Al   -0.00028   0.00066   0.00069   0.00000  Uiso   1.00
Al50   Al    0.49926  -0.00604   0.50124   0.00000  Uiso   1.00
Al51   Al   -0.00016   0.49480   0.00083   0.00000  Uiso   1.00
Al52   Al    0.49959   0.49431   0.50047   0.00000  Uiso   1.00
O53    O     1.00101   0.24736   0.05567   0.00000  Uiso   1.00
C54    C     0.17582   0.24632   0.81010   0.00000  Uiso   1.00
C55    C     0.31725   0.24634   0.68271   0.00000  Uiso   1.00
C56    C     0.10438   0.24604   0.88136   0.00000  Uiso   1.00
C57    C     0.39026   0.24548   0.61385   0.00000  Uiso   1.00
O58    O     0.49840   0.74380   0.55406   0.00000  Uiso   1.00
C59    C     0.32259   0.74469   0.31177   0.00000  Uiso   1.00
C60    C     0.18336   0.74873   0.18124   0.00000  Uiso   1.00
C61    C     0.39330   0.74345   0.38392   0.00000  Uiso   1.00
C62    C     0.11028   0.75045   0.11266   0.00000  Uiso   1.00
O63    O    -0.00065   0.74765   0.96002   0.00000  Uiso   1.00
C64    C     0.82200   0.74633   0.18969   0.00000  Uiso   1.00
C65    C     0.68157   0.74633   0.31880   0.00000  Uiso   1.00
C66    C     0.89300   0.74606   0.11780   0.00000  Uiso   1.00
C67    C     0.60863   0.74547   0.38784   0.00000  Uiso   1.00
O68    O     0.49869   0.24381   0.44786   0.00000  Uiso   1.00
C69    C     0.67806   0.24465   0.68769   0.00000  Uiso   1.00
C70    C     0.81737   0.24876   0.81858   0.00000  Uiso   1.00
C71    C     0.60670   0.24353   0.61631   0.00000  Uiso   1.00
C72    C     0.89014   0.25043   0.88801   0.00000  Uiso   1.00
H73    H     0.49741   0.74340   0.61791   0.00000  Uiso   1.00
H74    H     0.49709   0.24341   0.38404   0.00000  Uiso   1.00
H75    H     1.00203   0.24730   0.11971   0.00000  Uiso   1.00
loop_
_geom_bond_atom_site_label_1
_geom_bond_atom_site_label_2
_geom_bond_distance
_geom_bond_site_symmetry_2
_ccdc_geom_bond_type
C1     C2      1.408   .     A
C1     C54     1.407   .     A
C1     H5      1.080   1_545 A
C2     C55     1.409   .     A
C2     H6      1.080   1_545 A
O3     C56     1.296   .     A
O3     Al49    1.796   1_556 A
O4     C57     1.294   .     A
O4     Al50    1.801   .     S
H5     C1      1.080   1_565 A
H6     C2      1.080   1_565 A
C7     C8      1.408   .     A
C7     C59     1.408   .     A
C7     H11     1.080   1_565 S
C8     C60     1.408   .     A
C8     H12     1.080   1_565 A
O9     C61     1.294   .     A
O9     Al50    1.799   1_565 A
O10    C62     1.302   .     A
O10    Al49    1.808   1_565 A
H11    C7      1.080   1_545 S
H12    C8      1.080   1_545 A
C13    C14     1.408   .     A
C13    C64     1.408   .     A
C13    H17     1.081   .     S
C14    C65     1.409   .     A
C14    H18     1.080   .     S
O15    C66     1.303   .     A
O15    Al51    1.809   1_655 A
O16    C67     1.294   .     A
O16    Al52    1.801   .     S
C19    C20     1.408   .     A
C19    C69     1.409   .     A
C19    H23     1.080   .     S
C20    C70     1.408   .     A
C20    H24     1.080   .     S
O21    Al52    1.800   .     S
O21    C71     1.293   .     A
O22    C72     1.294   .     A
O22    Al51    1.798   1_656 A
C25    C26     1.409   .     A
C25    C64     1.410   .     A
C25    H29     1.080   1_565 S
C26    C65     1.409   .     A
C26    H30     1.081   1_565 A
O27    C66     1.300   .     A
O27    Al49    1.813   1_665 S
O28    C67     1.294   .     A
O28    Al50    1.800   1_565 A
H29    C25     1.080   1_545 S
H30    C26     1.081   1_545 A
C31    C32     1.409   .     A
C31    C69     1.409   .     A
C31    H35     1.081   1_545 A
C32    C70     1.411   .     A
C32    H36     1.081   1_545 A
O33    Al50    1.799   .     S
O33    C71     1.293   .     A
O34    C72     1.294   .     A
O34    Al49    1.800   1_656 S
H35    C31     1.081   1_565 A
H36    C32     1.081   1_565 A
C37    C38     1.410   .     A
C37    C54     1.410   .     A
C37    H41     1.080   .     S
C38    C55     1.409   .     A
C38    H42     1.081   .     S
O39    C56     1.293   .     A
O39    Al51    1.799   1_556 S
O40    C57     1.294   .     A
O40    Al52    1.800   .     S
C43    C44     1.408   .     A
C43    C59     1.409   .     A
C43    H47     1.081   .     S
C44    C60     1.410   .     A
C44    H48     1.081   .     S
O45    Al52    1.799   .     S
O45    C61     1.292   .     A
O46    C62     1.301   .     A
O46    Al51    1.811   .     S
Al49   O3      1.796   1_554 A
Al49   O10     1.808   1_545 A
Al49   O27     1.813   1_445 S
Al49   O34     1.800   1_454 S
Al49   O53     1.797   1_455 A
Al49   O63     1.766   1_544 A
Al50   O68     1.808   .     S
Al50   O9      1.799   1_545 A
Al50   O28     1.800   1_545 A
Al50   O58     1.806   1_545 A
Al51   O15     1.809   1_455 A
Al51   O22     1.798   1_454 A
Al51   O39     1.799   1_554 S
Al51   O63     1.766   1_554 A
Al51   O53     1.801   1_455 A
Al52   O68     1.807   .     S
Al52   O58     1.807   .     S
O53    H75     0.864   .     S
O53    Al49    1.797   1_655 A
O53    Al51    1.801   1_655 A
C54    C56     1.507   .     S
C55    C57     1.507   .     S
O58    H73     0.862   .     S
O58    Al50    1.806   1_565 A
C59    C61     1.506   .     S
C60    C62     1.505   .     S
O63    Al49    1.766   1_566 A
O63    Al51    1.766   1_556 A
C64    C66     1.507   .     S
C65    C67     1.507   .     S
O68    H74     0.862   .     S
C69    C71     1.507   .     S
C70    C72     1.508   .     S
