data_EHODOV_clean
_audit_creation_date              2014-07-02
_audit_creation_method            'Materials Studio'
_symmetry_space_group_name_H-M    'P1'
_symmetry_Int_Tables_number       1
_symmetry_cell_setting            triclinic
loop_
_symmetry_equiv_pos_as_xyz
  x,y,z
_cell_length_a                    13.9668
_cell_length_b                    13.9668
_cell_length_c                    25.1822
_cell_angle_alpha                 105.5220
_cell_angle_beta                  105.5220
_cell_angle_gamma                 92.0073
loop_
_atom_site_label
_atom_site_type_symbol
_atom_site_fract_x
_atom_site_fract_y
_atom_site_fract_z
_atom_site_U_iso_or_equiv
_atom_site_adp_type
_atom_site_occupancy
In1    In    0.00000   0.50000   0.50000   0.01267  Uiso   1.00
In2    In    0.50000   0.50000   0.50000   0.01267  Uiso   1.00
In3    In    0.50000  -0.00000   0.00000   0.01267  Uiso   1.00
In4    In    0.50000   0.50000   0.00000   0.01267  Uiso   1.00
In5    In    0.73619   0.48619   0.47238   0.01267  Uiso   1.00
In6    In    0.51381   0.26381   0.02762   0.01267  Uiso   1.00
In7    In    0.26381   0.51381   0.52762   0.01267  Uiso   1.00
In8    In    0.48619   0.73619   0.97238   0.01267  Uiso   1.00
H1     H     0.28270   0.99990   0.08940   0.01267  Uiso   1.00
H2     H     0.32920   0.29800   0.14880   0.01267  Uiso   1.00
H3     H     0.25290   0.20590   0.28760   0.01267  Uiso   1.00
H4     H     0.25330   0.29550   0.37860   0.01267  Uiso   1.00
H5     H     0.95780   0.30540   0.32000   0.01267  Uiso   1.00
H6     H     0.16810   0.99930   0.14040   0.01267  Uiso   1.00
H7     H     0.95740   0.21180   0.23040   0.01267  Uiso   1.00
H8     H     0.20890   0.29410   0.19740   0.01267  Uiso   1.00
H9     H     0.80670   0.58950   0.08940   0.01267  Uiso   1.00
H10    H     0.81960   0.35080   0.14880   0.01267  Uiso   1.00
H11    H     0.03470   0.58170   0.28760   0.01267  Uiso   1.00
H12    H     0.12530   0.58310   0.37860   0.01267  Uiso   1.00
H13    H     0.36220   0.51460   0.32000   0.01267  Uiso   1.00
H14    H     0.97230   0.64110   0.14040   0.01267  Uiso   1.00
H15    H     0.27300   0.51860   0.23040   0.01267  Uiso   1.00
H16    H     0.98850   0.40330   0.19740   0.01267  Uiso   1.00
H17    H     0.00010   0.71730   0.41060   0.01267  Uiso   1.00
H18    H     0.70200   0.67080   0.35120   0.01267  Uiso   1.00
H19    H     0.79410   0.74710   0.21240   0.01267  Uiso   1.00
H20    H     0.70450   0.74670   0.12140   0.01267  Uiso   1.00
H21    H     0.69460   0.04220   0.18000   0.01267  Uiso   1.00
H22    H     0.00070   0.83190   0.35960   0.01267  Uiso   1.00
H23    H     0.78820   0.04260   0.26960   0.01267  Uiso   1.00
H24    H     0.70590   0.79110   0.30260   0.01267  Uiso   1.00
H25    H     0.41050   0.19330   0.41060   0.01267  Uiso   1.00
H26    H     0.64920   0.18040   0.35120   0.01267  Uiso   1.00
H27    H     0.41830   0.96530   0.21240   0.01267  Uiso   1.00
H28    H     0.41690   0.87470   0.12140   0.01267  Uiso   1.00
H29    H     0.48540   0.63780   0.18000   0.01267  Uiso   1.00
H30    H     0.35890   0.02770   0.35960   0.01267  Uiso   1.00
H31    H     0.48140   0.72700   0.26960   0.01267  Uiso   1.00
H32    H     0.59670   0.01150   0.30260   0.01267  Uiso   1.00
H33    H     0.71730   0.00010   0.91060   0.01267  Uiso   1.00
H34    H     0.67080   0.70200   0.85120   0.01267  Uiso   1.00
H35    H     0.74710   0.79410   0.71240   0.01267  Uiso   1.00
H36    H     0.74670   0.70450   0.62140   0.01267  Uiso   1.00
H37    H     0.04220   0.69460   0.68000   0.01267  Uiso   1.00
H38    H     0.83190   0.00070   0.85960   0.01267  Uiso   1.00
H39    H     0.04260   0.78820   0.76960   0.01267  Uiso   1.00
H40    H     0.79110   0.70590   0.80260   0.01267  Uiso   1.00
H41    H     0.19330   0.41050   0.91060   0.01267  Uiso   1.00
H42    H     0.18040   0.64920   0.85120   0.01267  Uiso   1.00
H43    H     0.96530   0.41830   0.71240   0.01267  Uiso   1.00
H44    H     0.87470   0.41690   0.62140   0.01267  Uiso   1.00
H45    H     0.63780   0.48540   0.68000   0.01267  Uiso   1.00
H46    H     0.02770   0.35890   0.85960   0.01267  Uiso   1.00
H47    H     0.72700   0.48140   0.76960   0.01267  Uiso   1.00
H48    H     0.01150   0.59670   0.80260   0.01267  Uiso   1.00
H49    H     0.99990   0.28270   0.58940   0.01267  Uiso   1.00
H50    H     0.29800   0.32920   0.64880   0.01267  Uiso   1.00
H51    H     0.20590   0.25290   0.78760   0.01267  Uiso   1.00
H52    H     0.29550   0.25330   0.87860   0.01267  Uiso   1.00
H53    H     0.30540   0.95780   0.82000   0.01267  Uiso   1.00
H54    H     0.99930   0.16810   0.64040   0.01267  Uiso   1.00
H55    H     0.21180   0.95740   0.73040   0.01267  Uiso   1.00
H56    H     0.29410   0.20890   0.69740   0.01267  Uiso   1.00
H57    H     0.58950   0.80670   0.58940   0.01267  Uiso   1.00
H58    H     0.35080   0.81960   0.64880   0.01267  Uiso   1.00
H59    H     0.58170   0.03470   0.78760   0.01267  Uiso   1.00
H60    H     0.58310   0.12530   0.87860   0.01267  Uiso   1.00
H61    H     0.51460   0.36220   0.82000   0.01267  Uiso   1.00
H62    H     0.64110   0.97230   0.64040   0.01267  Uiso   1.00
H63    H     0.51860   0.27300   0.73040   0.01267  Uiso   1.00
H64    H     0.40330   0.98850   0.69740   0.01267  Uiso   1.00
C1     C     0.39388   0.14828   0.08116   0.01267  Uiso   1.00
C2     C     0.26972   0.05992   0.11164   0.01267  Uiso   1.00
C3     C     0.29685   0.23725   0.14670   0.01267  Uiso   1.00
C4     C     0.10534   0.31314   0.35868   0.01267  Uiso   1.00
C5     C     0.10553   0.20273   0.25006   0.01267  Uiso   1.00
C6     C     0.19374   0.22654   0.29448   0.01267  Uiso   1.00
C7     C     0.31990   0.14850   0.11480   0.01267  Uiso   1.00
C8     C     0.19410   0.28050   0.34860   0.01267  Uiso   1.00
C9     C     0.10629   0.37429   0.41658   0.01267  Uiso   1.00
C10    C     0.01752   0.28552   0.31344   0.01267  Uiso   1.00
C11    C     0.20008   0.05968   0.14156   0.01267  Uiso   1.00
C12    C     0.01702   0.23062   0.26004   0.01267  Uiso   1.00
C13    C     0.17832   0.14552   0.17224   0.01267  Uiso   1.00
C14    C     0.22490   0.23490   0.17580   0.01267  Uiso   1.00
C15    C     0.68728   0.43288   0.08116   0.01267  Uiso   1.00
C16    C     0.84192   0.55172   0.11164   0.01267  Uiso   1.00
C17    C     0.84985   0.40945   0.14670   0.01267  Uiso   1.00
C18    C     0.25334   0.54554   0.35868   0.01267  Uiso   1.00
C19    C     0.14453   0.54733   0.25006   0.01267  Uiso   1.00
C20    C     0.10074   0.56794   0.29448   0.01267  Uiso   1.00
C21    C     0.79490   0.46630   0.11480   0.01267  Uiso   1.00
C22    C     0.15450   0.56810   0.34860   0.01267  Uiso   1.00
C23    C     0.31029   0.54229   0.41658   0.01267  Uiso   1.00
C24    C     0.29592   0.52792   0.31344   0.01267  Uiso   1.00
C25    C     0.94148   0.58188   0.14156   0.01267  Uiso   1.00
C26    C     0.24302   0.52942   0.26004   0.01267  Uiso   1.00
C27    C     0.99392   0.52672   0.17224   0.01267  Uiso   1.00
C28    C     0.95090   0.44090   0.17580   0.01267  Uiso   1.00
C29    C     0.85172   0.60612   0.41884   0.01267  Uiso   1.00
C30    C     0.94008   0.73028   0.38836   0.01267  Uiso   1.00
C31    C     0.76275   0.70315   0.35330   0.01267  Uiso   1.00
C32    C     0.68686   0.89466   0.14132   0.01267  Uiso   1.00
C33    C     0.79727   0.89447   0.24994   0.01267  Uiso   1.00
C34    C     0.77346   0.80626   0.20552   0.01267  Uiso   1.00
C35    C     0.85150   0.68010   0.38520   0.01267  Uiso   1.00
C36    C     0.71950   0.80590   0.15140   0.01267  Uiso   1.00
C37    C     0.62571   0.89371   0.08342   0.01267  Uiso   1.00
C38    C     0.71448   0.98248   0.18656   0.01267  Uiso   1.00
C39    C     0.94032   0.79992   0.35844   0.01267  Uiso   1.00
C40    C     0.76938   0.98298   0.23996   0.01267  Uiso   1.00
C41    C     0.85448   0.82168   0.32776   0.01267  Uiso   1.00
C42    C     0.76510   0.77510   0.32420   0.01267  Uiso   1.00
C43    C     0.56712   0.31272   0.41884   0.01267  Uiso   1.00
C44    C     0.44828   0.15808   0.38836   0.01267  Uiso   1.00
C45    C     0.59055   0.15015   0.35330   0.01267  Uiso   1.00
C46    C     0.45446   0.74666   0.14132   0.01267  Uiso   1.00
C47    C     0.45267   0.85547   0.24994   0.01267  Uiso   1.00
C48    C     0.43206   0.89926   0.20552   0.01267  Uiso   1.00
C49    C     0.53370   0.20510   0.38520   0.01267  Uiso   1.00
C50    C     0.43190   0.84550   0.15140   0.01267  Uiso   1.00
C51    C     0.45771   0.68971   0.08342   0.01267  Uiso   1.00
C52    C     0.47208   0.70408   0.18656   0.01267  Uiso   1.00
C53    C     0.41812   0.05852   0.35844   0.01267  Uiso   1.00
C54    C     0.47058   0.75698   0.23996   0.01267  Uiso   1.00
C55    C     0.47328   0.00608   0.32776   0.01267  Uiso   1.00
C56    C     0.55910   0.04910   0.32420   0.01267  Uiso   1.00
C57    C     0.60612   0.85172   0.91884   0.01267  Uiso   1.00
C58    C     0.73028   0.94008   0.88836   0.01267  Uiso   1.00
C59    C     0.70315   0.76275   0.85330   0.01267  Uiso   1.00
C60    C     0.89466   0.68686   0.64132   0.01267  Uiso   1.00
C61    C     0.89447   0.79727   0.74994   0.01267  Uiso   1.00
C62    C     0.80626   0.77346   0.70552   0.01267  Uiso   1.00
C63    C     0.68010   0.85150   0.88520   0.01267  Uiso   1.00
C64    C     0.80590   0.71950   0.65140   0.01267  Uiso   1.00
C65    C     0.89371   0.62571   0.58342   0.01267  Uiso   1.00
C66    C     0.98248   0.71448   0.68656   0.01267  Uiso   1.00
C67    C     0.79992   0.94032   0.85844   0.01267  Uiso   1.00
C68    C     0.98298   0.76938   0.73996   0.01267  Uiso   1.00
C69    C     0.82168   0.85448   0.82776   0.01267  Uiso   1.00
C70    C     0.77510   0.76510   0.82420   0.01267  Uiso   1.00
C71    C     0.31272   0.56712   0.91884   0.01267  Uiso   1.00
C72    C     0.15808   0.44828   0.88836   0.01267  Uiso   1.00
C73    C     0.15015   0.59055   0.85330   0.01267  Uiso   1.00
C74    C     0.74666   0.45446   0.64132   0.01267  Uiso   1.00
C75    C     0.85547   0.45267   0.74994   0.01267  Uiso   1.00
C76    C     0.89926   0.43206   0.70552   0.01267  Uiso   1.00
C77    C     0.20510   0.53370   0.88520   0.01267  Uiso   1.00
C78    C     0.84550   0.43190   0.65140   0.01267  Uiso   1.00
C79    C     0.68971   0.45771   0.58342   0.01267  Uiso   1.00
C80    C     0.70408   0.47208   0.68656   0.01267  Uiso   1.00
C81    C     0.05852   0.41812   0.85844   0.01267  Uiso   1.00
C82    C     0.75698   0.47058   0.73996   0.01267  Uiso   1.00
C83    C     0.00608   0.47328   0.82776   0.01267  Uiso   1.00
C84    C     0.04910   0.55910   0.82420   0.01267  Uiso   1.00
C85    C     0.14828   0.39388   0.58116   0.01267  Uiso   1.00
C86    C     0.05992   0.26972   0.61164   0.01267  Uiso   1.00
C87    C     0.23725   0.29685   0.64670   0.01267  Uiso   1.00
C88    C     0.31314   0.10534   0.85868   0.01267  Uiso   1.00
C89    C     0.20273   0.10553   0.75006   0.01267  Uiso   1.00
C90    C     0.22654   0.19374   0.79448   0.01267  Uiso   1.00
C91    C     0.14850   0.31990   0.61480   0.01267  Uiso   1.00
C92    C     0.28050   0.19410   0.84860   0.01267  Uiso   1.00
C93    C     0.37429   0.10629   0.91658   0.01267  Uiso   1.00
C94    C     0.28552   0.01752   0.81344   0.01267  Uiso   1.00
C95    C     0.05968   0.20008   0.64156   0.01267  Uiso   1.00
C96    C     0.23062   0.01702   0.76004   0.01267  Uiso   1.00
C97    C     0.14552   0.17832   0.67224   0.01267  Uiso   1.00
C98    C     0.23490   0.22490   0.67580   0.01267  Uiso   1.00
C99    C     0.43288   0.68728   0.58116   0.01267  Uiso   1.00
C100   C     0.55172   0.84192   0.61164   0.01267  Uiso   1.00
C101   C     0.40945   0.84985   0.64670   0.01267  Uiso   1.00
C102   C     0.54554   0.25334   0.85868   0.01267  Uiso   1.00
C103   C     0.54733   0.14453   0.75006   0.01267  Uiso   1.00
C104   C     0.56794   0.10074   0.79448   0.01267  Uiso   1.00
C105   C     0.46630   0.79490   0.61480   0.01267  Uiso   1.00
C106   C     0.56810   0.15450   0.84860   0.01267  Uiso   1.00
C107   C     0.54229   0.31029   0.91658   0.01267  Uiso   1.00
C108   C     0.52792   0.29592   0.81344   0.01267  Uiso   1.00
C109   C     0.58188   0.94148   0.64156   0.01267  Uiso   1.00
C110   C     0.52942   0.24302   0.76004   0.01267  Uiso   1.00
C111   C     0.52672   0.99392   0.67224   0.01267  Uiso   1.00
C112   C     0.44090   0.95090   0.67580   0.01267  Uiso   1.00
O1     O     0.86294   0.41136   0.47350   0.01267  Uiso   1.00
O2     O     0.02751   0.41375   0.42194   0.01267  Uiso   1.00
O3     O     0.18437   0.38483   0.45740   0.01267  Uiso   1.00
O4     O     0.44115   0.23131   0.08796   0.01267  Uiso   1.00
O5     O     0.40084   0.06572   0.04876   0.01267  Uiso   1.00
O6     O     0.10011   0.14231   0.19562   0.01267  Uiso   1.00
O7     O     0.61056   0.56214   0.47350   0.01267  Uiso   1.00
O8     O     0.39443   0.50819   0.42194   0.01267  Uiso   1.00
O9     O     0.27303   0.57257   0.45740   0.01267  Uiso   1.00
O10    O     0.64681   0.35665   0.08796   0.01267  Uiso   1.00
O11    O     0.64792   0.48304   0.04876   0.01267  Uiso   1.00
O12    O     0.09551   0.55331   0.19562   0.01267  Uiso   1.00
O13    O     0.58864   0.13706   0.02650   0.01267  Uiso   1.00
O14    O     0.58625   0.97249   0.07806   0.01267  Uiso   1.00
O15    O     0.61517   0.81563   0.04260   0.01267  Uiso   1.00
O16    O     0.76869   0.55885   0.41204   0.01267  Uiso   1.00
O17    O     0.93428   0.59916   0.45124   0.01267  Uiso   1.00
O18    O     0.85769   0.89989   0.30438   0.01267  Uiso   1.00
O19    O     0.43786   0.38944   0.02650   0.01267  Uiso   1.00
O20    O     0.49181   0.60557   0.07806   0.01267  Uiso   1.00
O21    O     0.42743   0.72697   0.04260   0.01267  Uiso   1.00
O22    O     0.64335   0.35319   0.41204   0.01267  Uiso   1.00
O23    O     0.51696   0.35208   0.45124   0.01267  Uiso   1.00
O24    O     0.44669   0.90449   0.30438   0.01267  Uiso   1.00
O25    O     0.13706   0.58864   0.52650   0.01267  Uiso   1.00
O26    O     0.97249   0.58625   0.57806   0.01267  Uiso   1.00
O27    O     0.81563   0.61517   0.54260   0.01267  Uiso   1.00
O28    O     0.55885   0.76869   0.91204   0.01267  Uiso   1.00
O29    O     0.59916   0.93428   0.95124   0.01267  Uiso   1.00
O30    O     0.89989   0.85769   0.80438   0.01267  Uiso   1.00
O31    O     0.38944   0.43786   0.52650   0.01267  Uiso   1.00
O32    O     0.60557   0.49181   0.57806   0.01267  Uiso   1.00
O33    O     0.72697   0.42743   0.54260   0.01267  Uiso   1.00
O34    O     0.35319   0.64335   0.91204   0.01267  Uiso   1.00
O35    O     0.35208   0.51696   0.95124   0.01267  Uiso   1.00
O36    O     0.90449   0.44669   0.80438   0.01267  Uiso   1.00
O37    O     0.41136   0.86294   0.97350   0.01267  Uiso   1.00
O38    O     0.41375   0.02751   0.92194   0.01267  Uiso   1.00
O39    O     0.38483   0.18437   0.95740   0.01267  Uiso   1.00
O40    O     0.23131   0.44115   0.58796   0.01267  Uiso   1.00
O41    O     0.06572   0.40084   0.54876   0.01267  Uiso   1.00
O42    O     0.14231   0.10011   0.69562   0.01267  Uiso   1.00
O43    O     0.56214   0.61056   0.97350   0.01267  Uiso   1.00
O44    O     0.50819   0.39443   0.92194   0.01267  Uiso   1.00
O45    O     0.57257   0.27303   0.95740   0.01267  Uiso   1.00
O46    O     0.35665   0.64681   0.58796   0.01267  Uiso   1.00
O47    O     0.48304   0.64792   0.54876   0.01267  Uiso   1.00
O48    O     0.55331   0.09551   0.69562   0.01267  Uiso   1.00
