data_EREFEN01_clean
_audit_creation_date              2014-07-02
_audit_creation_method            'Materials Studio'
_symmetry_space_group_name_H-M    'P1'
_symmetry_Int_Tables_number       1
_symmetry_cell_setting            triclinic
loop_
_symmetry_equiv_pos_as_xyz
  x,y,z
_cell_length_a                    13.1741
_cell_length_b                    13.2190
_cell_length_c                    14.0288
_cell_angle_alpha                 82.9890
_cell_angle_beta                  82.3690
_cell_angle_gamma                 84.0540
loop_
_atom_site_label
_atom_site_type_symbol
_atom_site_fract_x
_atom_site_fract_y
_atom_site_fract_z
_atom_site_U_iso_or_equiv
_atom_site_adp_type
_atom_site_occupancy
Zn1    Zn    0.36397   0.17197   0.79901   0.01267  Uiso   1.00
Zn2    Zn    0.37384   0.17761   0.58883   0.01267  Uiso   1.00
H1     H     0.33990   0.49590   0.80530   0.01267  Uiso   1.00
H2     H     0.33800   0.65920   0.86710   0.01267  Uiso   1.00
H3     H     0.34440   0.84360   0.85600   0.01267  Uiso   1.00
H4     H     0.39890   0.51180   0.51980   0.01267  Uiso   1.00
H5     H     0.40720   0.68570   0.51340   0.01267  Uiso   1.00
H6     H     0.38630   0.84660   0.58340   0.01267  Uiso   1.00
H7     H     0.04990   0.18010   0.58900   0.01267  Uiso   1.00
H8     H     0.89080   0.16460   0.52240   0.01267  Uiso   1.00
H9     H     0.71100   0.16140   0.53440   0.01267  Uiso   1.00
H10    H     0.85100   0.17800   0.87640   0.01267  Uiso   1.00
H11    H     0.02640   0.17370   0.87010   0.01267  Uiso   1.00
H12    H     0.69190   0.16980   0.80690   0.01267  Uiso   1.00
H13    H     0.23870   0.27230   0.95670   0.01267  Uiso   1.00
H14    H     0.49170   0.09390   0.12150   0.01267  Uiso   1.00
H15    H     0.49390   0.09120   0.95680   0.01267  Uiso   1.00
H16    H     0.34170   0.34260   0.25410   0.01267  Uiso   1.00
H17    H     0.35080   0.33130   0.41850   0.01267  Uiso   1.00
H18    H     0.38560   0.03160   0.44030   0.01267  Uiso   1.00
H19    H     0.38420   0.03380   0.27500   0.01267  Uiso   1.00
C1     C     0.36670   0.37200   0.67030   0.01267  Uiso   1.00
C2     C     0.36760   0.48500   0.66250   0.01267  Uiso   1.00
C3     C     0.35230   0.53470   0.74400   0.01267  Uiso   1.00
C4     C     0.34760   0.69380   0.80360   0.01267  Uiso   1.00
C5     C     0.35230   0.81210   0.79780   0.01267  Uiso   1.00
C6     C     0.38730   0.54290   0.57830   0.01267  Uiso   1.00
C7     C     0.39110   0.64840   0.57500   0.01267  Uiso   1.00
C8     C     0.36550   0.86400   0.72180   0.01267  Uiso   1.00
C9     C     0.37630   0.80990   0.64600   0.01267  Uiso   1.00
C10    C     0.35430   0.64080   0.73980   0.01267  Uiso   1.00
C11    C     0.37390   0.70050   0.65130   0.01267  Uiso   1.00
C12    C     0.36950   0.97730   0.71050   0.01267  Uiso   1.00
C13    C     0.17200   0.18190   0.72090   0.01267  Uiso   1.00
C14    C     0.05760   0.18030   0.72920   0.01267  Uiso   1.00
C15    C     0.00960   0.17870   0.65050   0.01267  Uiso   1.00
C16    C     0.85270   0.16820   0.58450   0.01267  Uiso   1.00
C17    C     0.74020   0.16530   0.59210   0.01267  Uiso   1.00
C18    C     0.89080   0.17650   0.81480   0.01267  Uiso   1.00
C19    C     0.99710   0.17650   0.81140   0.01267  Uiso   1.00
C20    C     0.68060   0.16750   0.66960   0.01267  Uiso   1.00
C21    C     0.73080   0.17040   0.74480   0.01267  Uiso   1.00
C22    C     0.90230   0.17520   0.65470   0.01267  Uiso   1.00
C23    C     0.84070   0.17450   0.73920   0.01267  Uiso   1.00
C24    C     0.56720   0.16510   0.67970   0.01267  Uiso   1.00
C25    C     0.29070   0.23540   0.99120   0.01267  Uiso   1.00
C26    C     0.28610   0.24380   0.08880   0.01267  Uiso   1.00
C27    C     0.36040   0.18820   0.14060   0.01267  Uiso   1.00
C28    C     0.43830   0.13140   0.08920   0.01267  Uiso   1.00
C29    C     0.43880   0.12920   0.99120   0.01267  Uiso   1.00
C30    C     0.35950   0.18720   0.24640   0.01267  Uiso   1.00
C31    C     0.35090   0.27770   0.29070   0.01267  Uiso   1.00
C32    C     0.35610   0.26980   0.38880   0.01267  Uiso   1.00
C33    C     0.37720   0.09550   0.40180   0.01267  Uiso   1.00
C34    C     0.37500   0.09640   0.30330   0.01267  Uiso   1.00
C35    C     0.05860   0.41220   0.13830   0.01267  Uiso   1.00
C36    C     0.90740   0.55230   0.19170   0.01267  Uiso   1.00
C37    C     0.07580   0.46510   0.20400   0.01267  Uiso   1.00
C38    C     0.99410   0.53770   0.22950   0.01267  Uiso   1.00
C39    C     0.88450   0.49080   0.12310   0.01267  Uiso   1.00
C40    C     0.96380   0.41440   0.09300   0.01267  Uiso   1.00
N1     N     0.36420   0.17860   0.94300   0.01267  Uiso   1.00
N2     N     0.20540   0.30660   0.13800   0.01267  Uiso   1.00
N3     N     0.14430   0.34870   0.09270   0.01267  Uiso   1.00
N4     N     0.36810   0.18120   0.44450   0.01267  Uiso   1.00
O1     O     0.35700   0.32380   0.75340   0.01267  Uiso   1.00
O2     O     0.37450   0.33060   0.59340   0.01267  Uiso   1.00
O3     O     0.22100   0.18800   0.63900   0.01267  Uiso   1.00
O4     O     0.21000   0.17690   0.79920   0.01267  Uiso   1.00
O5     O     0.52720   0.16460   0.60270   0.01267  Uiso   1.00
O6     O     0.51820   0.16220   0.76270   0.01267  Uiso   1.00
O7     O     0.36820   0.01820   0.78750   0.01267  Uiso   1.00
O8     O     0.37450   0.02410   0.62790   0.01267  Uiso   1.00
Zn3    Zn    0.63603   0.82803   0.20099   0.01267  Uiso   1.00
Zn4    Zn    0.62616   0.82239   0.41117   0.01267  Uiso   1.00
H20    H     0.66010   0.50410   0.19470   0.01267  Uiso   1.00
H21    H     0.66200   0.34080   0.13290   0.01267  Uiso   1.00
H22    H     0.65560   0.15640   0.14400   0.01267  Uiso   1.00
H23    H     0.60110   0.48820   0.48020   0.01267  Uiso   1.00
H24    H     0.59280   0.31430   0.48660   0.01267  Uiso   1.00
H25    H     0.61370   0.15340   0.41660   0.01267  Uiso   1.00
H26    H     0.95010   0.81990   0.41100   0.01267  Uiso   1.00
H27    H     0.10920   0.83540   0.47760   0.01267  Uiso   1.00
H28    H     0.28900   0.83860   0.46560   0.01267  Uiso   1.00
H29    H     0.14900   0.82200   0.12360   0.01267  Uiso   1.00
H30    H     0.97360   0.82630   0.12990   0.01267  Uiso   1.00
H31    H     0.30810   0.83020   0.19310   0.01267  Uiso   1.00
H32    H     0.76130   0.72770   0.04330   0.01267  Uiso   1.00
H33    H     0.50830   0.90610   0.87850   0.01267  Uiso   1.00
H34    H     0.50610   0.90880   0.04320   0.01267  Uiso   1.00
H35    H     0.65830   0.65740   0.74590   0.01267  Uiso   1.00
H36    H     0.64920   0.66870   0.58150   0.01267  Uiso   1.00
H37    H     0.61440   0.96840   0.55970   0.01267  Uiso   1.00
H38    H     0.61580   0.96620   0.72500   0.01267  Uiso   1.00
C41    C     0.63330   0.62800   0.32970   0.01267  Uiso   1.00
C42    C     0.63240   0.51500   0.33750   0.01267  Uiso   1.00
C43    C     0.64770   0.46530   0.25600   0.01267  Uiso   1.00
C44    C     0.65240   0.30620   0.19640   0.01267  Uiso   1.00
C45    C     0.64770   0.18790   0.20220   0.01267  Uiso   1.00
C46    C     0.61270   0.45710   0.42170   0.01267  Uiso   1.00
C47    C     0.60890   0.35160   0.42500   0.01267  Uiso   1.00
C48    C     0.63450   0.13600   0.27820   0.01267  Uiso   1.00
C49    C     0.62370   0.19010   0.35400   0.01267  Uiso   1.00
C50    C     0.64570   0.35920   0.26020   0.01267  Uiso   1.00
C51    C     0.62610   0.29950   0.34870   0.01267  Uiso   1.00
C52    C     0.63050   0.02270   0.28950   0.01267  Uiso   1.00
C53    C     0.82800   0.81810   0.27910   0.01267  Uiso   1.00
C54    C     0.94240   0.81970   0.27080   0.01267  Uiso   1.00
C55    C     0.99040   0.82130   0.34950   0.01267  Uiso   1.00
C56    C     0.14730   0.83180   0.41550   0.01267  Uiso   1.00
C57    C     0.25980   0.83470   0.40790   0.01267  Uiso   1.00
C58    C     0.10920   0.82350   0.18520   0.01267  Uiso   1.00
C59    C     0.00290   0.82350   0.18860   0.01267  Uiso   1.00
C60    C     0.31940   0.83250   0.33040   0.01267  Uiso   1.00
C61    C     0.26920   0.82960   0.25520   0.01267  Uiso   1.00
C62    C     0.09770   0.82480   0.34530   0.01267  Uiso   1.00
C63    C     0.15930   0.82550   0.26080   0.01267  Uiso   1.00
C64    C     0.43280   0.83490   0.32030   0.01267  Uiso   1.00
C65    C     0.70930   0.76460   0.00880   0.01267  Uiso   1.00
C66    C     0.71390   0.75620   0.91120   0.01267  Uiso   1.00
C67    C     0.63960   0.81180   0.85940   0.01267  Uiso   1.00
C68    C     0.56170   0.86860   0.91080   0.01267  Uiso   1.00
C69    C     0.56120   0.87080   0.00880   0.01267  Uiso   1.00
C70    C     0.64050   0.81280   0.75360   0.01267  Uiso   1.00
C71    C     0.64910   0.72230   0.70930   0.01267  Uiso   1.00
C72    C     0.64390   0.73020   0.61120   0.01267  Uiso   1.00
C73    C     0.62280   0.90450   0.59820   0.01267  Uiso   1.00
C74    C     0.62500   0.90360   0.69670   0.01267  Uiso   1.00
C75    C     0.94140   0.58780   0.86170   0.01267  Uiso   1.00
C76    C     0.09260   0.44770   0.80830   0.01267  Uiso   1.00
C77    C     0.92420   0.53490   0.79600   0.01267  Uiso   1.00
C78    C     0.00590   0.46230   0.77050   0.01267  Uiso   1.00
C79    C     0.11550   0.50920   0.87690   0.01267  Uiso   1.00
C80    C     0.03620   0.58560   0.90700   0.01267  Uiso   1.00
N5     N     0.63580   0.82140   0.05700   0.01267  Uiso   1.00
N6     N     0.79460   0.69340   0.86200   0.01267  Uiso   1.00
N7     N     0.85570   0.65130   0.90730   0.01267  Uiso   1.00
N8     N     0.63190   0.81880   0.55550   0.01267  Uiso   1.00
O9     O     0.64300   0.67620   0.24660   0.01267  Uiso   1.00
O10    O     0.62550   0.66940   0.40660   0.01267  Uiso   1.00
O11    O     0.77900   0.81200   0.36100   0.01267  Uiso   1.00
O12    O     0.79000   0.82310   0.20080   0.01267  Uiso   1.00
O13    O     0.47280   0.83540   0.39730   0.01267  Uiso   1.00
O14    O     0.48180   0.83780   0.23730   0.01267  Uiso   1.00
O15    O     0.63180   0.98180   0.21250   0.01267  Uiso   1.00
O16    O     0.62550   0.97590   0.37210   0.01267  Uiso   1.00
