data_ESATAU_clean
_audit_creation_date              2014-07-02
_audit_creation_method            'Materials Studio'
_symmetry_space_group_name_H-M    'P1'
_symmetry_Int_Tables_number       1
_symmetry_cell_setting            triclinic
loop_
_symmetry_equiv_pos_as_xyz
  x,y,z
_cell_length_a                    7.2752
_cell_length_b                    13.8489
_cell_length_c                    15.5737
_cell_angle_alpha                 84.2290
_cell_angle_beta                  88.5320
_cell_angle_gamma                 84.5780
loop_
_atom_site_label
_atom_site_type_symbol
_atom_site_fract_x
_atom_site_fract_y
_atom_site_fract_z
_atom_site_U_iso_or_equiv
_atom_site_adp_type
_atom_site_occupancy
Zn1    Zn    0.16672   0.02606   0.13429   0.01267  Uiso   1.00
Zn2    Zn    0.13841   0.16992   0.93341   0.01267  Uiso   1.00
Zn3    Zn    0.83328   0.97394   0.86571   0.01267  Uiso   1.00
Zn4    Zn    0.86159   0.83008   0.06659   0.01267  Uiso   1.00
Zn5    Zn    0.50000   0.00000   0.00000   0.01267  Uiso   1.00
H1     H     0.94510   0.33940   0.15140   0.01267  Uiso   1.00
H2     H     0.90900   0.49880   0.21620   0.01267  Uiso   1.00
H3     H     0.72570   0.61560   0.27710   0.01267  Uiso   1.00
H4     H     0.41350   0.59470   0.30720   0.01267  Uiso   1.00
H5     H     0.29010   0.45880   0.27380   0.01267  Uiso   1.00
H6     H     0.32790   0.30020   0.20850   0.01267  Uiso   1.00
H7     H     0.95740   0.25170   0.66090   0.01267  Uiso   1.00
H8     H     0.95370   0.28280   0.50210   0.01267  Uiso   1.00
H9     H     0.79850   0.29220   0.37700   0.01267  Uiso   1.00
H10    H     0.49200   0.25170   0.37800   0.01267  Uiso   1.00
H11    H     0.34710   0.20450   0.50460   0.01267  Uiso   1.00
H12    H     0.35890   0.16860   0.66430   0.01267  Uiso   1.00
H13    H     0.52950   0.24710   0.91700   0.01267  Uiso   1.00
H14    H     0.67600   0.37960   0.94460   0.01267  Uiso   1.00
H15    H     0.19420   0.50270   0.02520   0.01267  Uiso   1.00
H16    H     0.06040   0.36910   0.99380   0.01267  Uiso   1.00
H17    H     0.14410   0.99740   0.00170   0.01267  Uiso   1.00
H18    H     0.05490   0.66060   0.84860   0.01267  Uiso   1.00
H19    H     0.09100   0.50120   0.78380   0.01267  Uiso   1.00
H20    H     0.27430   0.38440   0.72290   0.01267  Uiso   1.00
H21    H     0.58650   0.40530   0.69280   0.01267  Uiso   1.00
H22    H     0.70990   0.54120   0.72620   0.01267  Uiso   1.00
H23    H     0.67210   0.69980   0.79150   0.01267  Uiso   1.00
H24    H     0.04260   0.74830   0.33910   0.01267  Uiso   1.00
H25    H     0.04630   0.71720   0.49790   0.01267  Uiso   1.00
H26    H     0.20150   0.70780   0.62300   0.01267  Uiso   1.00
H27    H     0.50800   0.74830   0.62200   0.01267  Uiso   1.00
H28    H     0.65290   0.79550   0.49540   0.01267  Uiso   1.00
H29    H     0.64110   0.83140   0.33570   0.01267  Uiso   1.00
H30    H     0.47050   0.75290   0.08300   0.01267  Uiso   1.00
H31    H     0.32400   0.62040   0.05540   0.01267  Uiso   1.00
H32    H     0.80580   0.49730   0.97480   0.01267  Uiso   1.00
H33    H     0.93960   0.63090   0.00620   0.01267  Uiso   1.00
H34    H     0.85590   0.00260   0.99830   0.01267  Uiso   1.00
C1     C     0.87220   0.18240   0.08920   0.01267  Uiso   1.00
C2     C     0.74640   0.25380   0.13620   0.01267  Uiso   1.00
C3     C     0.82020   0.33280   0.16170   0.01267  Uiso   1.00
C4     C     0.71110   0.40560   0.20380   0.01267  Uiso   1.00
C5     C     0.78470   0.49070   0.22670   0.01267  Uiso   1.00
C6     C     0.67670   0.55960   0.26340   0.01267  Uiso   1.00
C7     C     0.48740   0.54700   0.28130   0.01267  Uiso   1.00
C8     C     0.41370   0.46660   0.26110   0.01267  Uiso   1.00
C9     C     0.52210   0.39500   0.22110   0.01267  Uiso   1.00
C10    C     0.45080   0.30970   0.19560   0.01267  Uiso   1.00
C11    C     0.55530   0.24140   0.15320   0.01267  Uiso   1.00
C12    C     0.46700   0.15930   0.11990   0.01267  Uiso   1.00
C13    C     0.88470   0.18920   0.81650   0.01267  Uiso   1.00
C14    C     0.76400   0.19350   0.73810   0.01267  Uiso   1.00
C15    C     0.83970   0.23070   0.66070   0.01267  Uiso   1.00
C16    C     0.74740   0.23820   0.58200   0.01267  Uiso   1.00
C17    C     0.83210   0.26710   0.50310   0.01267  Uiso   1.00
C18    C     0.74060   0.27250   0.42890   0.01267  Uiso   1.00
C19    C     0.55480   0.24820   0.42970   0.01267  Uiso   1.00
C20    C     0.46860   0.22000   0.50510   0.01267  Uiso   1.00
C21    C     0.56060   0.21410   0.58340   0.01267  Uiso   1.00
C22    C     0.48220   0.18140   0.66260   0.01267  Uiso   1.00
C23    C     0.57970   0.16730   0.73850   0.01267  Uiso   1.00
C24    C     0.47950   0.12640   0.81750   0.01267  Uiso   1.00
C25    C     0.46070   0.29890   0.93980   0.01267  Uiso   1.00
C26    C     0.55010   0.37890   0.95620   0.01267  Uiso   1.00
C27    C     0.45320   0.45790   0.98990   0.01267  Uiso   1.00
C28    C     0.26680   0.45150   0.00340   0.01267  Uiso   1.00
C29    C     0.18710   0.37020   0.98490   0.01267  Uiso   1.00
C30    C     0.12780   0.81760   0.91080   0.01267  Uiso   1.00
C31    C     0.25360   0.74620   0.86380   0.01267  Uiso   1.00
C32    C     0.17980   0.66720   0.83830   0.01267  Uiso   1.00
C33    C     0.28890   0.59440   0.79620   0.01267  Uiso   1.00
C34    C     0.21530   0.50930   0.77330   0.01267  Uiso   1.00
C35    C     0.32330   0.44040   0.73660   0.01267  Uiso   1.00
C36    C     0.51260   0.45300   0.71870   0.01267  Uiso   1.00
C37    C     0.58630   0.53340   0.73890   0.01267  Uiso   1.00
C38    C     0.47790   0.60500   0.77890   0.01267  Uiso   1.00
C39    C     0.54920   0.69030   0.80440   0.01267  Uiso   1.00
C40    C     0.44470   0.75860   0.84680   0.01267  Uiso   1.00
C41    C     0.53300   0.84070   0.88010   0.01267  Uiso   1.00
C42    C     0.11530   0.81080   0.18350   0.01267  Uiso   1.00
C43    C     0.23600   0.80650   0.26190   0.01267  Uiso   1.00
C44    C     0.16030   0.76930   0.33930   0.01267  Uiso   1.00
C45    C     0.25260   0.76180   0.41800   0.01267  Uiso   1.00
C46    C     0.16790   0.73290   0.49690   0.01267  Uiso   1.00
C47    C     0.25940   0.72750   0.57110   0.01267  Uiso   1.00
C48    C     0.44520   0.75180   0.57030   0.01267  Uiso   1.00
C49    C     0.53140   0.78000   0.49490   0.01267  Uiso   1.00
C50    C     0.43940   0.78590   0.41660   0.01267  Uiso   1.00
C51    C     0.51780   0.81860   0.33740   0.01267  Uiso   1.00
C52    C     0.42030   0.83270   0.26150   0.01267  Uiso   1.00
C53    C     0.52050   0.87360   0.18250   0.01267  Uiso   1.00
C54    C     0.53930   0.70110   0.06020   0.01267  Uiso   1.00
C55    C     0.44990   0.62110   0.04380   0.01267  Uiso   1.00
C56    C     0.54680   0.54210   0.01010   0.01267  Uiso   1.00
C57    C     0.73320   0.54850   0.99660   0.01267  Uiso   1.00
C58    C     0.81290   0.62980   0.01510   0.01267  Uiso   1.00
N1     N     0.28140   0.29240   0.95480   0.01267  Uiso   1.00
N2     N     0.71860   0.70760   0.04520   0.01267  Uiso   1.00
O1     O     0.90670   0.09670   0.12350   0.01267  Uiso   1.00
O2     O     0.93840   0.21900   0.02010   0.01267  Uiso   1.00
O3     O     0.54710   0.12200   0.05790   0.01267  Uiso   1.00
O4     O     0.31620   0.13780   0.15450   0.01267  Uiso   1.00
O5     O     0.93580   0.10850   0.85920   0.01267  Uiso   1.00
O6     O     0.94440   0.26750   0.83250   0.01267  Uiso   1.00
O7     O     0.57000   0.06780   0.87120   0.01267  Uiso   1.00
O8     O     0.31180   0.15090   0.82400   0.01267  Uiso   1.00
O9     O     0.22280   0.03920   0.99998   0.01267  Uiso   1.00
O10    O     0.09330   0.90330   0.87650   0.01267  Uiso   1.00
O11    O     0.06160   0.78100   0.97990   0.01267  Uiso   1.00
O12    O     0.45290   0.87800   0.94210   0.01267  Uiso   1.00
O13    O     0.68380   0.86220   0.84550   0.01267  Uiso   1.00
O14    O     0.06420   0.89150   0.14080   0.01267  Uiso   1.00
O15    O     0.05560   0.73250   0.16750   0.01267  Uiso   1.00
O16    O     0.43000   0.93220   0.12880   0.01267  Uiso   1.00
O17    O     0.68820   0.84910   0.17600   0.01267  Uiso   1.00
O18    O     0.77720   0.96080   0.00002   0.01267  Uiso   1.00
