data_ESIPUR_clean
_audit_creation_date              2014-07-02
_audit_creation_method            'Materials Studio'
_symmetry_space_group_name_H-M    'P1'
_symmetry_Int_Tables_number       1
_symmetry_cell_setting            triclinic
loop_
_symmetry_equiv_pos_as_xyz
  x,y,z
_cell_length_a                    7.2710
_cell_length_b                    18.7230
_cell_length_c                    20.4810
_cell_angle_alpha                 107.0200
_cell_angle_beta                  90.0000
_cell_angle_gamma                 90.0000
loop_
_atom_site_label
_atom_site_type_symbol
_atom_site_fract_x
_atom_site_fract_y
_atom_site_fract_z
_atom_site_U_iso_or_equiv
_atom_site_adp_type
_atom_site_occupancy
Cu1    Cu    0.85349   0.47210   0.52200   0.01267  Uiso   1.00
Cu2    Cu    0.85349   0.02790   0.97800   0.01267  Uiso   1.00
Cu3    Cu    0.14651   0.52790   0.47800   0.01267  Uiso   1.00
Cu4    Cu    0.14651   0.97210   0.02200   0.01267  Uiso   1.00
H1     H     0.90170   0.33950   0.53200   0.01267  Uiso   1.00
H2     H     0.49830   0.66530   0.58130   0.01267  Uiso   1.00
H3     H     0.36420   0.78130   0.61730   0.01267  Uiso   1.00
H4     H     0.80590   0.87030   0.55570   0.01267  Uiso   1.00
H5     H     0.94380   0.75490   0.52370   0.01267  Uiso   1.00
H6     H     0.59200   0.89180   0.72840   0.01267  Uiso   1.00
H7     H     0.46610   0.91190   0.83560   0.01267  Uiso   1.00
H8     H     0.99790   0.97650   0.76840   0.01267  Uiso   1.00
H9     H     0.12580   0.95980   0.66240   0.01267  Uiso   1.00
H10    H     0.64790   0.22640   0.61000   0.01267  Uiso   1.00
H11    H     0.44990   0.18970   0.68130   0.01267  Uiso   1.00
H12    H     0.14490   0.37170   0.70050   0.01267  Uiso   1.00
H13    H     0.34630   0.41070   0.63160   0.01267  Uiso   1.00
H14    H     0.90170   0.16050   0.96800   0.01267  Uiso   1.00
H15    H     0.49830   0.83470   0.91870   0.01267  Uiso   1.00
H16    H     0.36420   0.71870   0.88270   0.01267  Uiso   1.00
H17    H     0.80590   0.62970   0.94430   0.01267  Uiso   1.00
H18    H     0.94380   0.74510   0.97630   0.01267  Uiso   1.00
H19    H     0.59200   0.60820   0.77160   0.01267  Uiso   1.00
H20    H     0.46610   0.58810   0.66440   0.01267  Uiso   1.00
H21    H     0.99790   0.52350   0.73160   0.01267  Uiso   1.00
H22    H     0.12580   0.54020   0.83760   0.01267  Uiso   1.00
H23    H     0.64790   0.27360   0.89000   0.01267  Uiso   1.00
H24    H     0.44990   0.31030   0.81870   0.01267  Uiso   1.00
H25    H     0.14490   0.12830   0.79950   0.01267  Uiso   1.00
H26    H     0.34630   0.08930   0.86840   0.01267  Uiso   1.00
H27    H     0.09830   0.66050   0.46800   0.01267  Uiso   1.00
H28    H     0.50170   0.33470   0.41870   0.01267  Uiso   1.00
H29    H     0.63580   0.21870   0.38270   0.01267  Uiso   1.00
H30    H     0.19410   0.12970   0.44430   0.01267  Uiso   1.00
H31    H     0.05620   0.24510   0.47630   0.01267  Uiso   1.00
H32    H     0.40800   0.10820   0.27160   0.01267  Uiso   1.00
H33    H     0.53390   0.08810   0.16440   0.01267  Uiso   1.00
H34    H     0.00210   0.02350   0.23160   0.01267  Uiso   1.00
H35    H     0.87420   0.04020   0.33760   0.01267  Uiso   1.00
H36    H     0.35210   0.77360   0.39000   0.01267  Uiso   1.00
H37    H     0.55010   0.81030   0.31870   0.01267  Uiso   1.00
H38    H     0.85510   0.62830   0.29950   0.01267  Uiso   1.00
H39    H     0.65370   0.58930   0.36840   0.01267  Uiso   1.00
H40    H     0.09830   0.83950   0.03200   0.01267  Uiso   1.00
H41    H     0.50170   0.16530   0.08130   0.01267  Uiso   1.00
H42    H     0.63580   0.28130   0.11730   0.01267  Uiso   1.00
H43    H     0.19410   0.37030   0.05570   0.01267  Uiso   1.00
H44    H     0.05620   0.25490   0.02370   0.01267  Uiso   1.00
H45    H     0.40800   0.39180   0.22840   0.01267  Uiso   1.00
H46    H     0.53390   0.41190   0.33560   0.01267  Uiso   1.00
H47    H     0.00210   0.47650   0.26840   0.01267  Uiso   1.00
H48    H     0.87420   0.45980   0.16240   0.01267  Uiso   1.00
H49    H     0.35210   0.72640   0.11000   0.01267  Uiso   1.00
H50    H     0.55010   0.68970   0.18130   0.01267  Uiso   1.00
H51    H     0.85510   0.87170   0.20050   0.01267  Uiso   1.00
H52    H     0.65370   0.91070   0.13160   0.01267  Uiso   1.00
C1     C     0.82550   0.62370   0.53016   0.01267  Uiso   1.00
C2     C     0.73500   0.69889   0.54985   0.01267  Uiso   1.00
C3     C     0.56180   0.70691   0.57714   0.01267  Uiso   1.00
C4     C     0.48150   0.77622   0.59837   0.01267  Uiso   1.00
C5     C     0.57250   0.83860   0.59190   0.01267  Uiso   1.00
C6     C     0.74460   0.82940   0.56230   0.01267  Uiso   1.00
C7     C     0.82620   0.76020   0.54230   0.01267  Uiso   1.00
C8     C     0.47530   0.91540   0.61604   0.01267  Uiso   1.00
C9     C     0.37410   0.92447   0.68387   0.01267  Uiso   1.00
C10    C     0.47240   0.90970   0.73647   0.01267  Uiso   1.00
C11    C     0.39680   0.92120   0.80078   0.01267  Uiso   1.00
C12    C     0.21750   0.94647   0.81300   0.01267  Uiso   1.00
C13    C     0.11890   0.95998   0.76069   0.01267  Uiso   1.00
C14    C     0.19510   0.94970   0.69685   0.01267  Uiso   1.00
C15    C     0.13670   0.96380   0.88338   0.01267  Uiso   1.00
C16    C     0.60760   0.98220   0.62830   0.01267  Uiso   1.00
C17    C     0.34190   0.91740   0.55711   0.01267  Uiso   1.00
C18    C     0.66100   0.35350   0.57662   0.01267  Uiso   1.00
C19    C     0.52310   0.32455   0.61613   0.01267  Uiso   1.00
C20    C     0.54940   0.25680   0.62954   0.01267  Uiso   1.00
C21    C     0.42950   0.23460   0.67180   0.01267  Uiso   1.00
C22    C     0.27940   0.27770   0.70033   0.01267  Uiso   1.00
C23    C     0.24850   0.34310   0.68360   0.01267  Uiso   1.00
C24    C     0.36880   0.36650   0.64214   0.01267  Uiso   1.00
C25    C     0.03520   0.31280   0.79510   0.01267  Uiso   1.00
C26    C     0.82550   0.87630   0.96984   0.01267  Uiso   1.00
C27    C     0.73500   0.80111   0.95015   0.01267  Uiso   1.00
C28    C     0.56180   0.79309   0.92286   0.01267  Uiso   1.00
C29    C     0.48150   0.72378   0.90163   0.01267  Uiso   1.00
C30    C     0.57250   0.66140   0.90810   0.01267  Uiso   1.00
C31    C     0.74460   0.67060   0.93770   0.01267  Uiso   1.00
C32    C     0.82620   0.73980   0.95770   0.01267  Uiso   1.00
C33    C     0.47530   0.58460   0.88396   0.01267  Uiso   1.00
C34    C     0.37410   0.57553   0.81613   0.01267  Uiso   1.00
C35    C     0.47240   0.59030   0.76353   0.01267  Uiso   1.00
C36    C     0.39680   0.57880   0.69922   0.01267  Uiso   1.00
C37    C     0.21750   0.55353   0.68700   0.01267  Uiso   1.00
C38    C     0.11890   0.54002   0.73931   0.01267  Uiso   1.00
C39    C     0.19510   0.55030   0.80315   0.01267  Uiso   1.00
C40    C     0.13670   0.53620   0.61662   0.01267  Uiso   1.00
C41    C     0.60760   0.51780   0.87170   0.01267  Uiso   1.00
C42    C     0.34190   0.58260   0.94289   0.01267  Uiso   1.00
C43    C     0.66100   0.14650   0.92338   0.01267  Uiso   1.00
C44    C     0.52310   0.17545   0.88387   0.01267  Uiso   1.00
C45    C     0.54940   0.24320   0.87046   0.01267  Uiso   1.00
C46    C     0.42950   0.26540   0.82820   0.01267  Uiso   1.00
C47    C     0.27940   0.22230   0.79967   0.01267  Uiso   1.00
C48    C     0.24850   0.15690   0.81640   0.01267  Uiso   1.00
C49    C     0.36880   0.13350   0.85786   0.01267  Uiso   1.00
C50    C     0.03520   0.18720   0.70490   0.01267  Uiso   1.00
C51    C     0.17450   0.37630   0.46984   0.01267  Uiso   1.00
C52    C     0.26500   0.30111   0.45015   0.01267  Uiso   1.00
C53    C     0.43820   0.29309   0.42286   0.01267  Uiso   1.00
C54    C     0.51850   0.22378   0.40163   0.01267  Uiso   1.00
C55    C     0.42750   0.16140   0.40810   0.01267  Uiso   1.00
C56    C     0.25540   0.17060   0.43770   0.01267  Uiso   1.00
C57    C     0.17380   0.23980   0.45770   0.01267  Uiso   1.00
C58    C     0.52470   0.08460   0.38396   0.01267  Uiso   1.00
C59    C     0.62590   0.07553   0.31613   0.01267  Uiso   1.00
C60    C     0.52760   0.09030   0.26353   0.01267  Uiso   1.00
C61    C     0.60320   0.07880   0.19922   0.01267  Uiso   1.00
C62    C     0.78250   0.05353   0.18700   0.01267  Uiso   1.00
C63    C     0.88110   0.04002   0.23931   0.01267  Uiso   1.00
C64    C     0.80490   0.05030   0.30315   0.01267  Uiso   1.00
C65    C     0.86330   0.03620   0.11662   0.01267  Uiso   1.00
C66    C     0.39240   0.01780   0.37170   0.01267  Uiso   1.00
C67    C     0.65810   0.08260   0.44289   0.01267  Uiso   1.00
C68    C     0.33900   0.64650   0.42338   0.01267  Uiso   1.00
C69    C     0.47690   0.67545   0.38387   0.01267  Uiso   1.00
C70    C     0.45060   0.74320   0.37046   0.01267  Uiso   1.00
C71    C     0.57050   0.76540   0.32820   0.01267  Uiso   1.00
C72    C     0.72060   0.72230   0.29967   0.01267  Uiso   1.00
C73    C     0.75150   0.65690   0.31640   0.01267  Uiso   1.00
C74    C     0.63120   0.63350   0.35786   0.01267  Uiso   1.00
C75    C     0.96480   0.68720   0.20490   0.01267  Uiso   1.00
C76    C     0.17450   0.12370   0.03016   0.01267  Uiso   1.00
C77    C     0.26500   0.19889   0.04985   0.01267  Uiso   1.00
C78    C     0.43820   0.20691   0.07714   0.01267  Uiso   1.00
C79    C     0.51850   0.27622   0.09837   0.01267  Uiso   1.00
C80    C     0.42750   0.33860   0.09190   0.01267  Uiso   1.00
C81    C     0.25540   0.32940   0.06230   0.01267  Uiso   1.00
C82    C     0.17380   0.26020   0.04230   0.01267  Uiso   1.00
C83    C     0.52470   0.41540   0.11604   0.01267  Uiso   1.00
C84    C     0.62590   0.42447   0.18387   0.01267  Uiso   1.00
C85    C     0.52760   0.40970   0.23647   0.01267  Uiso   1.00
C86    C     0.60320   0.42120   0.30078   0.01267  Uiso   1.00
C87    C     0.78250   0.44647   0.31300   0.01267  Uiso   1.00
C88    C     0.88110   0.45998   0.26069   0.01267  Uiso   1.00
C89    C     0.80490   0.44970   0.19685   0.01267  Uiso   1.00
C90    C     0.86330   0.46380   0.38338   0.01267  Uiso   1.00
C91    C     0.39240   0.48220   0.12830   0.01267  Uiso   1.00
C92    C     0.65810   0.41740   0.05711   0.01267  Uiso   1.00
C93    C     0.33900   0.85350   0.07662   0.01267  Uiso   1.00
C94    C     0.47690   0.82455   0.11613   0.01267  Uiso   1.00
C95    C     0.45060   0.75680   0.12954   0.01267  Uiso   1.00
C96    C     0.57050   0.73460   0.17180   0.01267  Uiso   1.00
C97    C     0.72060   0.77770   0.20033   0.01267  Uiso   1.00
C98    C     0.75150   0.84310   0.18360   0.01267  Uiso   1.00
C99    C     0.63120   0.86650   0.14214   0.01267  Uiso   1.00
C100   C     0.96480   0.81280   0.29510   0.01267  Uiso   1.00
C101   C     0.15780   0.25000   0.75000   0.01267  Uiso   1.00
C102   C     0.84220   0.75000   0.25000   0.01267  Uiso   1.00
O1     O     0.74140   0.57089   0.54181   0.01267  Uiso   1.00
O2     O     0.98560   0.61835   0.50385   0.01267  Uiso   1.00
O3     O     0.22920   0.94598   0.92796   0.01267  Uiso   1.00
O4     O     0.98260   0.99527   0.89162   0.01267  Uiso   1.00
O5     O     0.64430   0.41254   0.56431   0.01267  Uiso   1.00
O6     O     0.80350   0.30934   0.55799   0.01267  Uiso   1.00
O7     O     0.74140   0.92911   0.95819   0.01267  Uiso   1.00
O8     O     0.98560   0.88165   0.99615   0.01267  Uiso   1.00
O9     O     0.22920   0.55402   0.57204   0.01267  Uiso   1.00
O10    O     0.98260   0.50473   0.60838   0.01267  Uiso   1.00
O11    O     0.64430   0.08746   0.93569   0.01267  Uiso   1.00
O12    O     0.80350   0.19066   0.94201   0.01267  Uiso   1.00
O13    O     0.25860   0.42911   0.45819   0.01267  Uiso   1.00
O14    O     0.01440   0.38165   0.49615   0.01267  Uiso   1.00
O15    O     0.77080   0.05402   0.07204   0.01267  Uiso   1.00
O16    O     0.01740   0.00473   0.10838   0.01267  Uiso   1.00
O17    O     0.35570   0.58746   0.43569   0.01267  Uiso   1.00
O18    O     0.19650   0.69066   0.44201   0.01267  Uiso   1.00
O19    O     0.25860   0.07089   0.04181   0.01267  Uiso   1.00
O20    O     0.01440   0.11835   0.00385   0.01267  Uiso   1.00
O21    O     0.77080   0.44598   0.42796   0.01267  Uiso   1.00
O22    O     0.01740   0.49527   0.39162   0.01267  Uiso   1.00
O23    O     0.35570   0.91254   0.06431   0.01267  Uiso   1.00
O24    O     0.19650   0.80934   0.05799   0.01267  Uiso   1.00
F1     F     0.74700   0.97611   0.66831   0.01267  Uiso   1.00
F2     F     0.52400   0.04635   0.65931   0.01267  Uiso   1.00
F3     F     0.68180   0.98965   0.57098   0.01267  Uiso   1.00
F4     F     0.20570   0.86881   0.55098   0.01267  Uiso   1.00
F5     F     0.26640   0.98456   0.56595   0.01267  Uiso   1.00
F6     F     0.42910   0.90002   0.49740   0.01267  Uiso   1.00
F7     F     0.95880   0.29087   0.84517   0.01267  Uiso   1.00
F8     F     0.89740   0.33170   0.76040   0.01267  Uiso   1.00
F9     F     0.13020   0.37394   0.82400   0.01267  Uiso   1.00
F10    F     0.74700   0.52389   0.83169   0.01267  Uiso   1.00
F11    F     0.52400   0.45365   0.84069   0.01267  Uiso   1.00
F12    F     0.68180   0.51035   0.92902   0.01267  Uiso   1.00
F13    F     0.20570   0.63119   0.94902   0.01267  Uiso   1.00
F14    F     0.26640   0.51544   0.93405   0.01267  Uiso   1.00
F15    F     0.42910   0.59998   0.00260   0.01267  Uiso   1.00
F16    F     0.95880   0.20913   0.65483   0.01267  Uiso   1.00
F17    F     0.89740   0.16830   0.73960   0.01267  Uiso   1.00
F18    F     0.13020   0.12606   0.67600   0.01267  Uiso   1.00
F19    F     0.25300   0.02389   0.33169   0.01267  Uiso   1.00
F20    F     0.47600   0.95365   0.34069   0.01267  Uiso   1.00
F21    F     0.31820   0.01035   0.42902   0.01267  Uiso   1.00
F22    F     0.79430   0.13119   0.44902   0.01267  Uiso   1.00
F23    F     0.73360   0.01544   0.43405   0.01267  Uiso   1.00
F24    F     0.57090   0.09998   0.50260   0.01267  Uiso   1.00
F25    F     0.04120   0.70913   0.15483   0.01267  Uiso   1.00
F26    F     0.10260   0.66830   0.23960   0.01267  Uiso   1.00
F27    F     0.86980   0.62606   0.17600   0.01267  Uiso   1.00
F28    F     0.25300   0.47611   0.16831   0.01267  Uiso   1.00
F29    F     0.47600   0.54635   0.15931   0.01267  Uiso   1.00
F30    F     0.31820   0.48965   0.07098   0.01267  Uiso   1.00
F31    F     0.79430   0.36881   0.05098   0.01267  Uiso   1.00
F32    F     0.73360   0.48456   0.06595   0.01267  Uiso   1.00
F33    F     0.57090   0.40002   0.99740   0.01267  Uiso   1.00
F34    F     0.04120   0.79087   0.34517   0.01267  Uiso   1.00
F35    F     0.10260   0.83170   0.26040   0.01267  Uiso   1.00
F36    F     0.86980   0.87394   0.32400   0.01267  Uiso   1.00
