data_ETAYAA_clean
_audit_creation_date              2014-07-02
_audit_creation_method            'Materials Studio'
_symmetry_space_group_name_H-M    'P1'
_symmetry_Int_Tables_number       1
_symmetry_cell_setting            triclinic
loop_
_symmetry_equiv_pos_as_xyz
  x,y,z
_cell_length_a                    14.9609
_cell_length_b                    15.2105
_cell_length_c                    15.3820
_cell_angle_alpha                 80.3176
_cell_angle_beta                  70.0021
_cell_angle_gamma                 60.5414
loop_
_atom_site_label
_atom_site_type_symbol
_atom_site_fract_x
_atom_site_fract_y
_atom_site_fract_z
_atom_site_U_iso_or_equiv
_atom_site_adp_type
_atom_site_occupancy
Cd1    Cd    0.11699   0.80808   0.98203   0.01267  Uiso   1.00
Cd2    Cd    0.07493   0.80808   0.51797   0.01267  Uiso   1.00
Cd3    Cd    0.81714   0.36572   0.25000   0.01267  Uiso   1.00
H1     H     0.27470   0.67600   0.20590   0.01267  Uiso   1.00
H2     H     0.39190   0.39840   0.94040   0.01267  Uiso   1.00
H3     H     0.56220   0.27400   0.07180   0.01267  Uiso   1.00
H4     H     0.53840   0.26460   0.98310   0.01267  Uiso   1.00
H5     H     0.50990   0.15000   0.09440   0.01267  Uiso   1.00
H6     H     0.40120   0.22800   0.07480   0.01267  Uiso   1.00
H7     H     0.42350   0.23880   0.16380   0.01267  Uiso   1.00
H8     H     0.51710   0.26940   0.30170   0.01267  Uiso   1.00
H9     H     0.51940   0.27780   0.40130   0.01267  Uiso   1.00
H10    H     0.69160   0.22640   0.30500   0.01267  Uiso   1.00
H11    H     0.65220   0.31180   0.23350   0.01267  Uiso   1.00
H12    H     0.57000   0.50200   0.30020   0.01267  Uiso   1.00
H13    H     0.57940   0.50140   0.39880   0.01267  Uiso   1.00
H14    H     0.45510   0.43960   0.46390   0.01267  Uiso   1.00
H15    H     0.40290   0.53900   0.40860   0.01267  Uiso   1.00
H16    H     0.71610   0.34220   0.35810   0.01267  Uiso   1.00
H17    H     0.04930   0.67600   0.29410   0.01267  Uiso   1.00
H18    H     0.20970   0.39840   0.55960   0.01267  Uiso   1.00
H19    H     0.16380   0.27400   0.42820   0.01267  Uiso   1.00
H20    H     0.19700   0.26460   0.51690   0.01267  Uiso   1.00
H21    H     0.34010   0.15000   0.40560   0.01267  Uiso   1.00
H22    H     0.37080   0.22800   0.42520   0.01267  Uiso   1.00
H23    H     0.33770   0.23880   0.33620   0.01267  Uiso   1.00
H24    H     0.21350   0.26940   0.19830   0.01267  Uiso   1.00
H25    H     0.20280   0.27780   0.09870   0.01267  Uiso   1.00
H26    H     0.08200   0.22640   0.19500   0.01267  Uiso   1.00
H27    H     0.03600   0.31180   0.26650   0.01267  Uiso   1.00
H28    H     0.92800   0.50200   0.19980   0.01267  Uiso   1.00
H29    H     0.91920   0.50140   0.10120   0.01267  Uiso   1.00
H30    H     0.10530   0.43960   0.03610   0.01267  Uiso   1.00
H31    H     0.05810   0.53900   0.09140   0.01267  Uiso   1.00
H32    H     0.94170   0.34220   0.14190   0.01267  Uiso   1.00
C1     C     0.26156   0.57308   0.90419   0.01267  Uiso   1.00
C2     C     0.30674   0.53846   0.98456   0.01267  Uiso   1.00
C3     C     0.28226   0.60464   0.05639   0.01267  Uiso   1.00
C4     C     0.33239   0.55296   0.12898   0.01267  Uiso   1.00
C5     C     0.31625   0.60610   0.20446   0.01267  Uiso   1.00
C6     C     0.41452   0.45928   0.26822   0.01267  Uiso   1.00
C7     C     0.39846   0.45002   0.12923   0.01267  Uiso   1.00
C8     C     0.37628   0.43906   0.98796   0.01267  Uiso   1.00
C9     C     0.50569   0.28442   0.04765   0.01267  Uiso   1.00
C10    C     0.45565   0.21950   0.09980   0.01267  Uiso   1.00
C11    C     0.52783   0.30630   0.33949   0.01267  Uiso   1.00
C12    C     0.63966   0.29612   0.29896   0.01267  Uiso   1.00
C13    C     0.56893   0.46646   0.35886   0.01267  Uiso   1.00
C14    C     0.45978   0.46956   0.40271   0.01267  Uiso   1.00
C15    C     0.16536   0.57308   0.59581   0.01267  Uiso   1.00
C16    C     0.15480   0.53846   0.51544   0.01267  Uiso   1.00
C17    C     0.11310   0.60464   0.44361   0.01267  Uiso   1.00
C18    C     0.11465   0.55296   0.37102   0.01267  Uiso   1.00
C19    C     0.07765   0.60610   0.29554   0.01267  Uiso   1.00
C20    C     0.12620   0.45928   0.23178   0.01267  Uiso   1.00
C21    C     0.15152   0.45002   0.37077   0.01267  Uiso   1.00
C22    C     0.18466   0.43906   0.51204   0.01267  Uiso   1.00
C23    C     0.20989   0.28442   0.45235   0.01267  Uiso   1.00
C24    C     0.32485   0.21950   0.40020   0.01267  Uiso   1.00
C25    C     0.16587   0.30630   0.16051   0.01267  Uiso   1.00
C26    C     0.06422   0.29612   0.20104   0.01267  Uiso   1.00
C27    C     0.96461   0.46646   0.14114   0.01267  Uiso   1.00
C28    C     0.07066   0.46956   0.09729   0.01267  Uiso   1.00
N1     N     0.65862   0.36232   0.34309   0.01267  Uiso   1.00
N2     N     0.44770   0.41290   0.34326   0.01267  Uiso   1.00
N3     N     0.35678   0.56180   0.27247   0.01267  Uiso   1.00
N4     N     0.43949   0.40070   0.19869   0.01267  Uiso   1.00
N5     N     0.42537   0.39326   0.05479   0.01267  Uiso   1.00
N6     N     0.97906   0.36232   0.15691   0.01267  Uiso   1.00
N7     N     0.13940   0.41290   0.15674   0.01267  Uiso   1.00
N8     N     0.08142   0.56180   0.22753   0.01267  Uiso   1.00
N9     N     0.15981   0.40070   0.30131   0.01267  Uiso   1.00
N10    N     0.18137   0.39326   0.44521   0.01267  Uiso   1.00
O1     O     0.27979   0.50826   0.85152   0.01267  Uiso   1.00
O2     O     0.20914   0.66570   0.88969   0.01267  Uiso   1.00
O3     O     0.22433   0.69770   0.06179   0.01267  Uiso   1.00
O4     O     0.21195   0.50826   0.64848   0.01267  Uiso   1.00
O5     O     0.12516   0.66570   0.61031   0.01267  Uiso   1.00
O6     O     0.07797   0.69770   0.43821   0.01267  Uiso   1.00
Cd4    Cd    0.88301   0.19192   0.01797   0.01267  Uiso   1.00
Cd5    Cd    0.92507   0.19192   0.48203   0.01267  Uiso   1.00
Cd6    Cd    0.18286   0.63428   0.75000   0.01267  Uiso   1.00
H33    H     0.72530   0.32400   0.79410   0.01267  Uiso   1.00
H34    H     0.60810   0.60160   0.05960   0.01267  Uiso   1.00
H35    H     0.43780   0.72600   0.92820   0.01267  Uiso   1.00
H36    H     0.46160   0.73540   0.01690   0.01267  Uiso   1.00
H37    H     0.49010   0.85000   0.90560   0.01267  Uiso   1.00
H38    H     0.59880   0.77200   0.92520   0.01267  Uiso   1.00
H39    H     0.57650   0.76120   0.83620   0.01267  Uiso   1.00
H40    H     0.48290   0.73060   0.69830   0.01267  Uiso   1.00
H41    H     0.48060   0.72220   0.59870   0.01267  Uiso   1.00
H42    H     0.30840   0.77360   0.69500   0.01267  Uiso   1.00
H43    H     0.34780   0.68820   0.76650   0.01267  Uiso   1.00
H44    H     0.43000   0.49800   0.69980   0.01267  Uiso   1.00
H45    H     0.42060   0.49860   0.60120   0.01267  Uiso   1.00
H46    H     0.54490   0.56040   0.53610   0.01267  Uiso   1.00
H47    H     0.59710   0.46100   0.59140   0.01267  Uiso   1.00
H48    H     0.28390   0.65780   0.64190   0.01267  Uiso   1.00
H49    H     0.95070   0.32400   0.70590   0.01267  Uiso   1.00
H50    H     0.79030   0.60160   0.44040   0.01267  Uiso   1.00
H51    H     0.83620   0.72600   0.57180   0.01267  Uiso   1.00
H52    H     0.80300   0.73540   0.48310   0.01267  Uiso   1.00
H53    H     0.65990   0.85000   0.59440   0.01267  Uiso   1.00
H54    H     0.62920   0.77200   0.57480   0.01267  Uiso   1.00
H55    H     0.66230   0.76120   0.66380   0.01267  Uiso   1.00
H56    H     0.78650   0.73060   0.80170   0.01267  Uiso   1.00
H57    H     0.79720   0.72220   0.90130   0.01267  Uiso   1.00
H58    H     0.91800   0.77360   0.80500   0.01267  Uiso   1.00
H59    H     0.96400   0.68820   0.73350   0.01267  Uiso   1.00
H60    H     0.07200   0.49800   0.80020   0.01267  Uiso   1.00
H61    H     0.08080   0.49860   0.89880   0.01267  Uiso   1.00
H62    H     0.89470   0.56040   0.96390   0.01267  Uiso   1.00
H63    H     0.94190   0.46100   0.90860   0.01267  Uiso   1.00
H64    H     0.05830   0.65780   0.85810   0.01267  Uiso   1.00
C29    C     0.73844   0.42692   0.09581   0.01267  Uiso   1.00
C30    C     0.69326   0.46154   0.01544   0.01267  Uiso   1.00
C31    C     0.71774   0.39536   0.94361   0.01267  Uiso   1.00
C32    C     0.66761   0.44704   0.87102   0.01267  Uiso   1.00
C33    C     0.68375   0.39390   0.79554   0.01267  Uiso   1.00
C34    C     0.58548   0.54072   0.73178   0.01267  Uiso   1.00
C35    C     0.60154   0.54998   0.87077   0.01267  Uiso   1.00
C36    C     0.62372   0.56094   0.01204   0.01267  Uiso   1.00
C37    C     0.49431   0.71558   0.95235   0.01267  Uiso   1.00
C38    C     0.54435   0.78050   0.90020   0.01267  Uiso   1.00
C39    C     0.47217   0.69370   0.66051   0.01267  Uiso   1.00
C40    C     0.36034   0.70388   0.70104   0.01267  Uiso   1.00
C41    C     0.43107   0.53354   0.64114   0.01267  Uiso   1.00
C42    C     0.54022   0.53044   0.59729   0.01267  Uiso   1.00
C43    C     0.83464   0.42692   0.40419   0.01267  Uiso   1.00
C44    C     0.84520   0.46154   0.48456   0.01267  Uiso   1.00
C45    C     0.88690   0.39536   0.55639   0.01267  Uiso   1.00
C46    C     0.88535   0.44704   0.62898   0.01267  Uiso   1.00
C47    C     0.92235   0.39390   0.70446   0.01267  Uiso   1.00
C48    C     0.87380   0.54072   0.76822   0.01267  Uiso   1.00
C49    C     0.84848   0.54998   0.62923   0.01267  Uiso   1.00
C50    C     0.81534   0.56094   0.48796   0.01267  Uiso   1.00
C51    C     0.79011   0.71558   0.54765   0.01267  Uiso   1.00
C52    C     0.67515   0.78050   0.59980   0.01267  Uiso   1.00
C53    C     0.83413   0.69370   0.83949   0.01267  Uiso   1.00
C54    C     0.93578   0.70388   0.79896   0.01267  Uiso   1.00
C55    C     0.03539   0.53354   0.85886   0.01267  Uiso   1.00
C56    C     0.92934   0.53044   0.90271   0.01267  Uiso   1.00
N11    N     0.34138   0.63768   0.65691   0.01267  Uiso   1.00
N12    N     0.55230   0.58710   0.65674   0.01267  Uiso   1.00
N13    N     0.64322   0.43820   0.72753   0.01267  Uiso   1.00
N14    N     0.56051   0.59930   0.80131   0.01267  Uiso   1.00
N15    N     0.57463   0.60674   0.94521   0.01267  Uiso   1.00
N16    N     0.02094   0.63768   0.84309   0.01267  Uiso   1.00
N17    N     0.86060   0.58710   0.84326   0.01267  Uiso   1.00
N18    N     0.91858   0.43820   0.77247   0.01267  Uiso   1.00
N19    N     0.84019   0.59930   0.69869   0.01267  Uiso   1.00
N20    N     0.81863   0.60674   0.55479   0.01267  Uiso   1.00
O7     O     0.72021   0.49174   0.14848   0.01267  Uiso   1.00
O8     O     0.79086   0.33430   0.11031   0.01267  Uiso   1.00
O9     O     0.77567   0.30230   0.93821   0.01267  Uiso   1.00
O10    O     0.78805   0.49174   0.35152   0.01267  Uiso   1.00
O11    O     0.87484   0.33430   0.38969   0.01267  Uiso   1.00
O12    O     0.92203   0.30230   0.56179   0.01267  Uiso   1.00
