data_EWIMON_charged
_audit_creation_date              2014-07-02
_audit_creation_method            'Materials Studio'
_symmetry_space_group_name_H-M    'P1'
_symmetry_Int_Tables_number       1
_symmetry_cell_setting            triclinic
loop_
_symmetry_equiv_pos_as_xyz
  x,y,z
_cell_length_a                    11.4430
_cell_length_b                    13.8720
_cell_length_c                    24.7110
_cell_angle_alpha                 93.2700
_cell_angle_beta                  90.0000
_cell_angle_gamma                 90.0000
loop_
_atom_site_label
_atom_site_type_symbol
_atom_site_fract_x
_atom_site_fract_y
_atom_site_fract_z
_atom_site_U_iso_or_equiv
_atom_site_adp_type
_atom_site_occupancy
Mn1    Mn    0.74972   0.50338   0.71434   0.01267  Uiso   1.00
Mn2    Mn    0.90175   0.49809   0.89072   0.01267  Uiso   1.00
Mn3    Mn    0.24972   0.49662   0.78566   0.01267  Uiso   1.00
Mn4    Mn    0.40175   0.50191   0.60928   0.01267  Uiso   1.00
Mn5    Mn    0.25028   0.49662   0.28566   0.01267  Uiso   1.00
Mn6    Mn    0.09825   0.50191   0.10928   0.01267  Uiso   1.00
Mn7    Mn    0.75028   0.50338   0.21434   0.01267  Uiso   1.00
Mn8    Mn    0.59825   0.49809   0.39072   0.01267  Uiso   1.00
H1     H     0.78110   0.47810   0.59530   0.01267  Uiso   1.00
H2     H     0.69300   0.53120   0.62020   0.01267  Uiso   1.00
H3     H     0.64880   0.49940   0.86910   0.01267  Uiso   1.00
H4     H     0.69870   0.48230   0.91820   0.01267  Uiso   1.00
H5     H     0.62930   0.68110   0.78220   0.01267  Uiso   1.00
H6     H     0.62090   0.84440   0.79100   0.01267  Uiso   1.00
H7     H     0.87600   0.85570   0.68480   0.01267  Uiso   1.00
H8     H     0.87600   0.68920   0.67570   0.01267  Uiso   1.00
H9     H     0.68640   0.00320   0.76840   0.01267  Uiso   1.00
H10    H     0.83990   0.00690   0.68570   0.01267  Uiso   1.00
H11    H     0.67290   0.15780   0.77940   0.01267  Uiso   1.00
H12    H     0.64750   0.32360   0.77470   0.01267  Uiso   1.00
H13    H     0.85890   0.32280   0.65240   0.01267  Uiso   1.00
H14    H     0.88310   0.16140   0.65150   0.01267  Uiso   1.00
H15    H     0.75630   0.30590   0.89500   0.01267  Uiso   1.00
H16    H     0.77150   0.13890   0.88110   0.01267  Uiso   1.00
H17    H     0.09910   0.16330   0.85290   0.01267  Uiso   1.00
H18    H     0.08150   0.32420   0.86420   0.01267  Uiso   1.00
H19    H     0.02980   0.99220   0.85910   0.01267  Uiso   1.00
H20    H     0.79810   0.99740   0.88440   0.01267  Uiso   1.00
H21    H     0.72730   0.84150   0.90710   0.01267  Uiso   1.00
H22    H     0.73890   0.67560   0.91010   0.01267  Uiso   1.00
H23    H     0.05750   0.67460   0.85900   0.01267  Uiso   1.00
H24    H     0.05060   0.83880   0.84900   0.01267  Uiso   1.00
H25    H     0.28110   0.52190   0.90470   0.01267  Uiso   1.00
H26    H     0.19300   0.46880   0.87980   0.01267  Uiso   1.00
H27    H     0.14880   0.50060   0.63090   0.01267  Uiso   1.00
H28    H     0.19870   0.51770   0.58180   0.01267  Uiso   1.00
H29    H     0.12930   0.31890   0.71780   0.01267  Uiso   1.00
H30    H     0.12090   0.15560   0.70900   0.01267  Uiso   1.00
H31    H     0.37600   0.14430   0.81520   0.01267  Uiso   1.00
H32    H     0.37600   0.31080   0.82430   0.01267  Uiso   1.00
H33    H     0.18640   0.99680   0.73160   0.01267  Uiso   1.00
H34    H     0.33990   0.99310   0.81430   0.01267  Uiso   1.00
H35    H     0.17290   0.84220   0.72060   0.01267  Uiso   1.00
H36    H     0.14750   0.67640   0.72530   0.01267  Uiso   1.00
H37    H     0.35890   0.67720   0.84760   0.01267  Uiso   1.00
H38    H     0.38310   0.83860   0.84850   0.01267  Uiso   1.00
H39    H     0.25630   0.69410   0.60500   0.01267  Uiso   1.00
H40    H     0.27150   0.86110   0.61890   0.01267  Uiso   1.00
H41    H     0.59910   0.83670   0.64710   0.01267  Uiso   1.00
H42    H     0.58150   0.67580   0.63580   0.01267  Uiso   1.00
H43    H     0.52980   0.00780   0.64090   0.01267  Uiso   1.00
H44    H     0.29810   0.00260   0.61560   0.01267  Uiso   1.00
H45    H     0.22730   0.15850   0.59290   0.01267  Uiso   1.00
H46    H     0.23890   0.32440   0.58990   0.01267  Uiso   1.00
H47    H     0.55750   0.32540   0.64100   0.01267  Uiso   1.00
H48    H     0.55060   0.16120   0.65100   0.01267  Uiso   1.00
H49    H     0.21890   0.52190   0.40470   0.01267  Uiso   1.00
H50    H     0.30700   0.46880   0.37980   0.01267  Uiso   1.00
H51    H     0.35120   0.50060   0.13090   0.01267  Uiso   1.00
H52    H     0.30130   0.51770   0.08180   0.01267  Uiso   1.00
H53    H     0.37070   0.31890   0.21780   0.01267  Uiso   1.00
H54    H     0.37910   0.15560   0.20900   0.01267  Uiso   1.00
H55    H     0.12400   0.14430   0.31520   0.01267  Uiso   1.00
H56    H     0.12400   0.31080   0.32430   0.01267  Uiso   1.00
H57    H     0.31360   0.99680   0.23160   0.01267  Uiso   1.00
H58    H     0.16010   0.99310   0.31430   0.01267  Uiso   1.00
H59    H     0.32710   0.84220   0.22060   0.01267  Uiso   1.00
H60    H     0.35250   0.67640   0.22530   0.01267  Uiso   1.00
H61    H     0.14110   0.67720   0.34760   0.01267  Uiso   1.00
H62    H     0.11690   0.83860   0.34850   0.01267  Uiso   1.00
H63    H     0.24370   0.69410   0.10500   0.01267  Uiso   1.00
H64    H     0.22850   0.86110   0.11890   0.01267  Uiso   1.00
H65    H     0.90090   0.83670   0.14710   0.01267  Uiso   1.00
H66    H     0.91850   0.67580   0.13580   0.01267  Uiso   1.00
H67    H     0.97020   0.00780   0.14090   0.01267  Uiso   1.00
H68    H     0.20190   0.00260   0.11560   0.01267  Uiso   1.00
H69    H     0.27270   0.15850   0.09290   0.01267  Uiso   1.00
H70    H     0.26110   0.32440   0.08990   0.01267  Uiso   1.00
H71    H     0.94250   0.32540   0.14100   0.01267  Uiso   1.00
H72    H     0.94940   0.16120   0.15100   0.01267  Uiso   1.00
H73    H     0.71890   0.47810   0.09530   0.01267  Uiso   1.00
H74    H     0.80700   0.53120   0.12020   0.01267  Uiso   1.00
H75    H     0.85120   0.49940   0.36910   0.01267  Uiso   1.00
H76    H     0.80130   0.48230   0.41820   0.01267  Uiso   1.00
H77    H     0.87070   0.68110   0.28220   0.01267  Uiso   1.00
H78    H     0.87910   0.84440   0.29100   0.01267  Uiso   1.00
H79    H     0.62400   0.85570   0.18480   0.01267  Uiso   1.00
H80    H     0.62400   0.68920   0.17570   0.01267  Uiso   1.00
H81    H     0.81360   0.00320   0.26840   0.01267  Uiso   1.00
H82    H     0.66010   0.00690   0.18570   0.01267  Uiso   1.00
H83    H     0.82710   0.15780   0.27940   0.01267  Uiso   1.00
H84    H     0.85250   0.32360   0.27470   0.01267  Uiso   1.00
H85    H     0.64110   0.32280   0.15240   0.01267  Uiso   1.00
H86    H     0.61690   0.16140   0.15150   0.01267  Uiso   1.00
H87    H     0.74370   0.30590   0.39500   0.01267  Uiso   1.00
H88    H     0.72850   0.13890   0.38110   0.01267  Uiso   1.00
H89    H     0.40090   0.16330   0.35290   0.01267  Uiso   1.00
H90    H     0.41850   0.32420   0.36420   0.01267  Uiso   1.00
H91    H     0.47020   0.99220   0.35910   0.01267  Uiso   1.00
H92    H     0.70190   0.99740   0.38440   0.01267  Uiso   1.00
H93    H     0.77270   0.84150   0.40710   0.01267  Uiso   1.00
H94    H     0.76110   0.67560   0.41010   0.01267  Uiso   1.00
H95    H     0.44250   0.67460   0.35900   0.01267  Uiso   1.00
H96    H     0.44940   0.83880   0.34900   0.01267  Uiso   1.00
C1     C     0.97700   0.49870   0.78380   0.01267  Uiso   1.00
C2     C     0.01610   0.50150   0.72480   0.01267  Uiso   1.00
C3     C     0.93750   0.49650   0.01190   0.01267  Uiso   1.00
C4     C     0.67990   0.71650   0.76150   0.01267  Uiso   1.00
C5     C     0.67490   0.81480   0.76730   0.01267  Uiso   1.00
C6     C     0.74790   0.86930   0.73880   0.01267  Uiso   1.00
C7     C     0.82350   0.82120   0.70500   0.01267  Uiso   1.00
C8     C     0.82380   0.72010   0.69980   0.01267  Uiso   1.00
C9     C     0.73640   0.97610   0.74210   0.01267  Uiso   1.00
C10    C     0.78950   0.03440   0.71170   0.01267  Uiso   1.00
C11    C     0.77860   0.14050   0.71400   0.01267  Uiso   1.00
C12    C     0.71010   0.19050   0.75240   0.01267  Uiso   1.00
C13    C     0.69750   0.29080   0.75040   0.01267  Uiso   1.00
C14    C     0.82040   0.28930   0.67860   0.01267  Uiso   1.00
C15    C     0.83480   0.19220   0.67740   0.01267  Uiso   1.00
C16    C     0.82860   0.27880   0.88610   0.01267  Uiso   1.00
C17    C     0.83830   0.17670   0.87890   0.01267  Uiso   1.00
C18    C     0.93880   0.13490   0.86920   0.01267  Uiso   1.00
C19    C     0.02680   0.19000   0.86230   0.01267  Uiso   1.00
C20    C     0.01450   0.28760   0.86870   0.01267  Uiso   1.00
C21    C     0.95760   0.01990   0.86730   0.01267  Uiso   1.00
C22    C     0.87090   0.96970   0.87740   0.01267  Uiso   1.00
C23    C     0.88970   0.85830   0.87780   0.01267  Uiso   1.00
C24    C     0.79530   0.80910   0.89650   0.01267  Uiso   1.00
C25    C     0.80400   0.70950   0.89910   0.01267  Uiso   1.00
C26    C     0.98950   0.70810   0.86860   0.01267  Uiso   1.00
C27    C     0.98640   0.80760   0.86290   0.01267  Uiso   1.00
C28    C     0.47700   0.50130   0.71620   0.01267  Uiso   1.00
C29    C     0.51610   0.49850   0.77520   0.01267  Uiso   1.00
C30    C     0.43750   0.50350   0.48810   0.01267  Uiso   1.00
C31    C     0.17990   0.28350   0.73850   0.01267  Uiso   1.00
C32    C     0.17490   0.18520   0.73270   0.01267  Uiso   1.00
C33    C     0.24790   0.13070   0.76120   0.01267  Uiso   1.00
C34    C     0.32350   0.17880   0.79500   0.01267  Uiso   1.00
C35    C     0.32380   0.27990   0.80020   0.01267  Uiso   1.00
C36    C     0.23640   0.02390   0.75790   0.01267  Uiso   1.00
C37    C     0.28950   0.96560   0.78830   0.01267  Uiso   1.00
C38    C     0.27860   0.85950   0.78600   0.01267  Uiso   1.00
C39    C     0.21010   0.80950   0.74760   0.01267  Uiso   1.00
C40    C     0.19750   0.70920   0.74960   0.01267  Uiso   1.00
C41    C     0.32040   0.71070   0.82140   0.01267  Uiso   1.00
C42    C     0.33480   0.80780   0.82260   0.01267  Uiso   1.00
C43    C     0.32860   0.72120   0.61390   0.01267  Uiso   1.00
C44    C     0.33830   0.82330   0.62110   0.01267  Uiso   1.00
C45    C     0.43880   0.86510   0.63080   0.01267  Uiso   1.00
C46    C     0.52680   0.81000   0.63770   0.01267  Uiso   1.00
C47    C     0.51450   0.71240   0.63130   0.01267  Uiso   1.00
C48    C     0.45760   0.98010   0.63270   0.01267  Uiso   1.00
C49    C     0.37090   0.03030   0.62260   0.01267  Uiso   1.00
C50    C     0.38970   0.14170   0.62220   0.01267  Uiso   1.00
C51    C     0.29530   0.19090   0.60350   0.01267  Uiso   1.00
C52    C     0.30400   0.29050   0.60090   0.01267  Uiso   1.00
C53    C     0.48950   0.29190   0.63140   0.01267  Uiso   1.00
C54    C     0.48640   0.19240   0.63710   0.01267  Uiso   1.00
C55    C     0.02300   0.50130   0.21620   0.01267  Uiso   1.00
C56    C     0.98390   0.49850   0.27520   0.01267  Uiso   1.00
C57    C     0.06250   0.50350   0.98810   0.01267  Uiso   1.00
C58    C     0.32010   0.28350   0.23850   0.01267  Uiso   1.00
C59    C     0.32510   0.18520   0.23270   0.01267  Uiso   1.00
C60    C     0.25210   0.13070   0.26120   0.01267  Uiso   1.00
C61    C     0.17650   0.17880   0.29500   0.01267  Uiso   1.00
C62    C     0.17620   0.27990   0.30020   0.01267  Uiso   1.00
C63    C     0.26360   0.02390   0.25790   0.01267  Uiso   1.00
C64    C     0.21050   0.96560   0.28830   0.01267  Uiso   1.00
C65    C     0.22140   0.85950   0.28600   0.01267  Uiso   1.00
C66    C     0.28990   0.80950   0.24760   0.01267  Uiso   1.00
C67    C     0.30250   0.70920   0.24960   0.01267  Uiso   1.00
C68    C     0.17960   0.71070   0.32140   0.01267  Uiso   1.00
C69    C     0.16520   0.80780   0.32260   0.01267  Uiso   1.00
C70    C     0.17140   0.72120   0.11390   0.01267  Uiso   1.00
C71    C     0.16170   0.82330   0.12110   0.01267  Uiso   1.00
C72    C     0.06120   0.86510   0.13080   0.01267  Uiso   1.00
C73    C     0.97320   0.81000   0.13770   0.01267  Uiso   1.00
C74    C     0.98550   0.71240   0.13130   0.01267  Uiso   1.00
C75    C     0.04240   0.98010   0.13270   0.01267  Uiso   1.00
C76    C     0.12910   0.03030   0.12260   0.01267  Uiso   1.00
C77    C     0.11030   0.14170   0.12220   0.01267  Uiso   1.00
C78    C     0.20470   0.19090   0.10350   0.01267  Uiso   1.00
C79    C     0.19600   0.29050   0.10090   0.01267  Uiso   1.00
C80    C     0.01050   0.29190   0.13140   0.01267  Uiso   1.00
C81    C     0.01360   0.19240   0.13710   0.01267  Uiso   1.00
C82    C     0.52300   0.49870   0.28380   0.01267  Uiso   1.00
C83    C     0.48390   0.50150   0.22480   0.01267  Uiso   1.00
C84    C     0.56250   0.49650   0.51190   0.01267  Uiso   1.00
C85    C     0.82010   0.71650   0.26150   0.01267  Uiso   1.00
C86    C     0.82510   0.81480   0.26730   0.01267  Uiso   1.00
C87    C     0.75210   0.86930   0.23880   0.01267  Uiso   1.00
C88    C     0.67650   0.82120   0.20500   0.01267  Uiso   1.00
C89    C     0.67620   0.72010   0.19980   0.01267  Uiso   1.00
C90    C     0.76360   0.97610   0.24210   0.01267  Uiso   1.00
C91    C     0.71050   0.03440   0.21170   0.01267  Uiso   1.00
C92    C     0.72140   0.14050   0.21400   0.01267  Uiso   1.00
C93    C     0.78990   0.19050   0.25240   0.01267  Uiso   1.00
C94    C     0.80250   0.29080   0.25040   0.01267  Uiso   1.00
C95    C     0.67960   0.28930   0.17860   0.01267  Uiso   1.00
C96    C     0.66520   0.19220   0.17740   0.01267  Uiso   1.00
C97    C     0.67140   0.27880   0.38610   0.01267  Uiso   1.00
C98    C     0.66170   0.17670   0.37890   0.01267  Uiso   1.00
C99    C     0.56120   0.13490   0.36920   0.01267  Uiso   1.00
C100   C     0.47320   0.19000   0.36230   0.01267  Uiso   1.00
C101   C     0.48550   0.28760   0.36870   0.01267  Uiso   1.00
C102   C     0.54240   0.01990   0.36730   0.01267  Uiso   1.00
C103   C     0.62910   0.96970   0.37740   0.01267  Uiso   1.00
C104   C     0.61030   0.85830   0.37780   0.01267  Uiso   1.00
C105   C     0.70470   0.80910   0.39650   0.01267  Uiso   1.00
C106   C     0.69600   0.70950   0.39910   0.01267  Uiso   1.00
C107   C     0.51050   0.70810   0.36860   0.01267  Uiso   1.00
C108   C     0.51360   0.80760   0.36290   0.01267  Uiso   1.00
N1     N     0.75410   0.66770   0.72750   0.01267  Uiso   1.00
N2     N     0.75570   0.33990   0.71420   0.01267  Uiso   1.00
N3     N     0.91780   0.33560   0.88060   0.01267  Uiso   1.00
N4     N     0.90150   0.66060   0.88670   0.01267  Uiso   1.00
N5     N     0.25410   0.33230   0.77250   0.01267  Uiso   1.00
N6     N     0.25570   0.66010   0.78580   0.01267  Uiso   1.00
N7     N     0.41780   0.66440   0.61940   0.01267  Uiso   1.00
N8     N     0.40150   0.33940   0.61330   0.01267  Uiso   1.00
N9     N     0.24590   0.33230   0.27250   0.01267  Uiso   1.00
N10    N     0.24430   0.66010   0.28580   0.01267  Uiso   1.00
N11    N     0.08220   0.66440   0.11940   0.01267  Uiso   1.00
N12    N     0.09850   0.33940   0.11330   0.01267  Uiso   1.00
N13    N     0.74590   0.66770   0.22750   0.01267  Uiso   1.00
N14    N     0.74430   0.33990   0.21420   0.01267  Uiso   1.00
N15    N     0.58220   0.33560   0.38060   0.01267  Uiso   1.00
N16    N     0.59850   0.66060   0.38670   0.01267  Uiso   1.00
O1     O     0.76040   0.50510   0.62601   0.01267  Uiso   1.00
O2     O     0.71500   0.49200   0.88487   0.01267  Uiso   1.00
O3     O     0.05140   0.49770   0.81927   0.01267  Uiso   1.00
O4     O     0.86920   0.49880   0.79293   0.01267  Uiso   1.00
O5     O     0.94030   0.50440   0.68958   0.01267  Uiso   1.00
O6     O     0.12440   0.49870   0.71690   0.01267  Uiso   1.00
O7     O     0.85540   0.49670   0.97983   0.01267  Uiso   1.00
O8     O     0.93220   0.49400   0.06213   0.01267  Uiso   1.00
O9     O     0.26040   0.49490   0.87399   0.01267  Uiso   1.00
O10    O     0.21500   0.50800   0.61513   0.01267  Uiso   1.00
O11    O     0.55140   0.50230   0.68073   0.01267  Uiso   1.00
O12    O     0.36920   0.50120   0.70707   0.01267  Uiso   1.00
O13    O     0.44030   0.49560   0.81042   0.01267  Uiso   1.00
O14    O     0.62440   0.50130   0.78310   0.01267  Uiso   1.00
O15    O     0.35540   0.50330   0.52017   0.01267  Uiso   1.00
O16    O     0.43220   0.50600   0.43787   0.01267  Uiso   1.00
O17    O     0.23960   0.49490   0.37399   0.01267  Uiso   1.00
O18    O     0.28500   0.50800   0.11513   0.01267  Uiso   1.00
O19    O     0.94860   0.50230   0.18073   0.01267  Uiso   1.00
O20    O     0.13080   0.50120   0.20707   0.01267  Uiso   1.00
O21    O     0.05970   0.49560   0.31042   0.01267  Uiso   1.00
O22    O     0.87560   0.50130   0.28310   0.01267  Uiso   1.00
O23    O     0.14460   0.50330   0.02017   0.01267  Uiso   1.00
O24    O     0.06780   0.50600   0.93787   0.01267  Uiso   1.00
O25    O     0.73960   0.50510   0.12601   0.01267  Uiso   1.00
O26    O     0.78500   0.49200   0.38487   0.01267  Uiso   1.00
O27    O     0.44860   0.49770   0.31927   0.01267  Uiso   1.00
O28    O     0.63080   0.49880   0.29293   0.01267  Uiso   1.00
O29    O     0.55970   0.50440   0.18958   0.01267  Uiso   1.00
O30    O     0.37560   0.49870   0.21690   0.01267  Uiso   1.00
O31    O     0.64460   0.49670   0.47983   0.01267  Uiso   1.00
O32    O     0.56780   0.49400   0.56213   0.01267  Uiso   1.00
Br1    Br    0.04630   0.97761   0.61803   0.01267  Uiso   1.00
Br2    Br    0.54630   0.02239   0.88197   0.01267  Uiso   1.00
Br3    Br    0.95370   0.02239   0.38197   0.01267  Uiso   1.00
Br4    Br    0.45370   0.97761   0.11803   0.01267  Uiso   1.00
