data_EXEWAG_clean
_audit_creation_date              2014-07-02
_audit_creation_method            'Materials Studio'
_symmetry_space_group_name_H-M    'P1'
_symmetry_Int_Tables_number       1
_symmetry_cell_setting            triclinic
loop_
_symmetry_equiv_pos_as_xyz
  x,y,z
_cell_length_a                    13.8990
_cell_length_b                    14.8676
_cell_length_c                    14.8676
_cell_angle_alpha                 117.7920
_cell_angle_beta                  98.1929
_cell_angle_gamma                 98.1929
loop_
_atom_site_label
_atom_site_type_symbol
_atom_site_fract_x
_atom_site_fract_y
_atom_site_fract_z
_atom_site_U_iso_or_equiv
_atom_site_adp_type
_atom_site_occupancy
Zn1    Zn    0.13907   0.62205   0.32599   0.01267  Uiso   1.00
Zn2    Zn    0.36093   0.67401   0.37795   0.01267  Uiso   1.00
H1     H     0.38370   0.65860   0.07160   0.01267  Uiso   1.00
H2     H     0.99510   0.59810   0.44610   0.01267  Uiso   1.00
H3     H     0.96490   0.66070   0.21910   0.01267  Uiso   1.00
H4     H     0.83740   0.61010   0.46190   0.01267  Uiso   1.00
H5     H     0.39990   0.67660   0.89380   0.01267  Uiso   1.00
H6     H     0.04930   0.62290   0.80410   0.01267  Uiso   1.00
H7     H     0.80380   0.67190   0.22510   0.01267  Uiso   1.00
H8     H     0.39960   0.71200   0.72420   0.01267  Uiso   1.00
H9     H     0.11630   0.92840   0.34140   0.01267  Uiso   1.00
H10    H     0.50490   0.55390   0.40190   0.01267  Uiso   1.00
H11    H     0.53510   0.78090   0.33930   0.01267  Uiso   1.00
H12    H     0.66260   0.53810   0.38990   0.01267  Uiso   1.00
H13    H     0.10010   0.10620   0.32340   0.01267  Uiso   1.00
H14    H     0.45070   0.19590   0.37710   0.01267  Uiso   1.00
H15    H     0.69620   0.77490   0.32810   0.01267  Uiso   1.00
H16    H     0.10040   0.27580   0.28800   0.01267  Uiso   1.00
C1     C     0.22570   0.61840   0.06660   0.01267  Uiso   1.00
C2     C     0.31710   0.64550   0.03870   0.01267  Uiso   1.00
C3     C     0.95590   0.61360   0.40140   0.01267  Uiso   1.00
C4     C     0.80180   0.64441   0.34659   0.01267  Uiso   1.00
C5     C     0.93810   0.64990   0.26810   0.01267  Uiso   1.00
C6     C     0.26950   0.64580   0.93640   0.01267  Uiso   1.00
C7     C     0.17910   0.65180   0.76360   0.01267  Uiso   1.00
C8     C     0.26000   0.67861   0.63579   0.01267  Uiso   1.00
C9     C     0.22870   0.61234   0.16386   0.01267  Uiso   1.00
C10    C     0.16730   0.62850   0.90810   0.01267  Uiso   1.00
C11    C     0.86170   0.62080   0.41180   0.01267  Uiso   1.00
C12    C     0.33070   0.66600   0.87600   0.01267  Uiso   1.00
C13    C     0.33300   0.68620   0.71380   0.01267  Uiso   1.00
C14    C     0.11830   0.63250   0.82150   0.01267  Uiso   1.00
C15    C     0.84180   0.65780   0.27160   0.01267  Uiso   1.00
C16    C     0.28210   0.66930   0.78770   0.01267  Uiso   1.00
C17    C     0.27180   0.68423   0.54057   0.01267  Uiso   1.00
C18    C     0.27430   0.93340   0.38160   0.01267  Uiso   1.00
C19    C     0.18290   0.96130   0.35450   0.01267  Uiso   1.00
C20    C     0.54410   0.59860   0.38640   0.01267  Uiso   1.00
C21    C     0.69820   0.65341   0.35559   0.01267  Uiso   1.00
C22    C     0.56190   0.73190   0.35010   0.01267  Uiso   1.00
C23    C     0.23050   0.06360   0.35420   0.01267  Uiso   1.00
C24    C     0.32090   0.23640   0.34820   0.01267  Uiso   1.00
C25    C     0.24000   0.36421   0.32139   0.01267  Uiso   1.00
C26    C     0.27130   0.83614   0.38766   0.01267  Uiso   1.00
C27    C     0.33270   0.09190   0.37150   0.01267  Uiso   1.00
C28    C     0.63830   0.58820   0.37920   0.01267  Uiso   1.00
C29    C     0.16930   0.12400   0.33400   0.01267  Uiso   1.00
C30    C     0.16700   0.28620   0.31380   0.01267  Uiso   1.00
C31    C     0.38170   0.17850   0.36750   0.01267  Uiso   1.00
C32    C     0.65820   0.72840   0.34220   0.01267  Uiso   1.00
C33    C     0.21790   0.21230   0.33070   0.01267  Uiso   1.00
C34    C     0.22820   0.45943   0.31577   0.01267  Uiso   1.00
S1     S     0.13515   0.65575   0.64915   0.01267  Uiso   1.00
S2     S     0.10734   0.60144   0.99136   0.01267  Uiso   1.00
S3     S     0.36485   0.35085   0.34425   0.01267  Uiso   1.00
S4     S     0.39266   0.00864   0.39856   0.01267  Uiso   1.00
N1     N     0.99610   0.62731   0.33089   0.01267  Uiso   1.00
N2     N     0.50390   0.66911   0.37269   0.01267  Uiso   1.00
O1     O     0.35790   0.69981   0.52619   0.01267  Uiso   1.00
O2     O     0.14590   0.58828   0.18072   0.01267  Uiso   1.00
O3     O     0.19140   0.66961   0.48039   0.01267  Uiso   1.00
O4     O     0.31340   0.63689   0.22271   0.01267  Uiso   1.00
O5     O     0.14210   0.47381   0.30019   0.01267  Uiso   1.00
O6     O     0.35410   0.81928   0.41172   0.01267  Uiso   1.00
O7     O     0.30860   0.51961   0.33039   0.01267  Uiso   1.00
O8     O     0.18660   0.77729   0.36311   0.01267  Uiso   1.00
Zn3    Zn    0.86093   0.37795   0.67401   0.01267  Uiso   1.00
Zn4    Zn    0.63907   0.32599   0.62205   0.01267  Uiso   1.00
H17    H     0.61630   0.34140   0.92840   0.01267  Uiso   1.00
H18    H     0.00490   0.40190   0.55390   0.01267  Uiso   1.00
H19    H     0.03510   0.33930   0.78090   0.01267  Uiso   1.00
H20    H     0.16260   0.38990   0.53810   0.01267  Uiso   1.00
H21    H     0.60010   0.32340   0.10620   0.01267  Uiso   1.00
H22    H     0.95070   0.37710   0.19590   0.01267  Uiso   1.00
H23    H     0.19620   0.32810   0.77490   0.01267  Uiso   1.00
H24    H     0.60040   0.28800   0.27580   0.01267  Uiso   1.00
H25    H     0.88370   0.07160   0.65860   0.01267  Uiso   1.00
H26    H     0.49510   0.44610   0.59810   0.01267  Uiso   1.00
H27    H     0.46490   0.21910   0.66070   0.01267  Uiso   1.00
H28    H     0.33740   0.46190   0.61010   0.01267  Uiso   1.00
H29    H     0.89990   0.89380   0.67660   0.01267  Uiso   1.00
H30    H     0.54930   0.80410   0.62290   0.01267  Uiso   1.00
H31    H     0.30380   0.22510   0.67190   0.01267  Uiso   1.00
H32    H     0.89960   0.72420   0.71200   0.01267  Uiso   1.00
C35    C     0.77430   0.38160   0.93340   0.01267  Uiso   1.00
C36    C     0.68290   0.35450   0.96130   0.01267  Uiso   1.00
C37    C     0.04410   0.38640   0.59860   0.01267  Uiso   1.00
C38    C     0.19820   0.35559   0.65341   0.01267  Uiso   1.00
C39    C     0.06190   0.35010   0.73190   0.01267  Uiso   1.00
C40    C     0.73050   0.35420   0.06360   0.01267  Uiso   1.00
C41    C     0.82090   0.34820   0.23640   0.01267  Uiso   1.00
C42    C     0.74000   0.32139   0.36421   0.01267  Uiso   1.00
C43    C     0.77130   0.38766   0.83614   0.01267  Uiso   1.00
C44    C     0.83270   0.37150   0.09190   0.01267  Uiso   1.00
C45    C     0.13830   0.37920   0.58820   0.01267  Uiso   1.00
C46    C     0.66930   0.33400   0.12400   0.01267  Uiso   1.00
C47    C     0.66700   0.31380   0.28620   0.01267  Uiso   1.00
C48    C     0.88170   0.36750   0.17850   0.01267  Uiso   1.00
C49    C     0.15820   0.34220   0.72840   0.01267  Uiso   1.00
C50    C     0.71790   0.33070   0.21230   0.01267  Uiso   1.00
C51    C     0.72820   0.31577   0.45943   0.01267  Uiso   1.00
C52    C     0.72570   0.06660   0.61840   0.01267  Uiso   1.00
C53    C     0.81710   0.03870   0.64550   0.01267  Uiso   1.00
C54    C     0.45590   0.40140   0.61360   0.01267  Uiso   1.00
C55    C     0.30180   0.34659   0.64441   0.01267  Uiso   1.00
C56    C     0.43810   0.26810   0.64990   0.01267  Uiso   1.00
C57    C     0.76950   0.93640   0.64580   0.01267  Uiso   1.00
C58    C     0.67910   0.76360   0.65180   0.01267  Uiso   1.00
C59    C     0.76000   0.63579   0.67861   0.01267  Uiso   1.00
C60    C     0.72870   0.16386   0.61234   0.01267  Uiso   1.00
C61    C     0.66730   0.90810   0.62850   0.01267  Uiso   1.00
C62    C     0.36170   0.41180   0.62080   0.01267  Uiso   1.00
C63    C     0.83070   0.87600   0.66600   0.01267  Uiso   1.00
C64    C     0.83300   0.71380   0.68620   0.01267  Uiso   1.00
C65    C     0.61830   0.82150   0.63250   0.01267  Uiso   1.00
C66    C     0.34180   0.27160   0.65780   0.01267  Uiso   1.00
C67    C     0.78210   0.78770   0.66930   0.01267  Uiso   1.00
C68    C     0.77180   0.54057   0.68423   0.01267  Uiso   1.00
S5     S     0.86485   0.34425   0.35085   0.01267  Uiso   1.00
S6     S     0.89266   0.39856   0.00864   0.01267  Uiso   1.00
S7     S     0.63515   0.64915   0.65575   0.01267  Uiso   1.00
S8     S     0.60734   0.99136   0.60144   0.01267  Uiso   1.00
N3     N     0.00390   0.37269   0.66911   0.01267  Uiso   1.00
N4     N     0.49610   0.33089   0.62731   0.01267  Uiso   1.00
O9     O     0.64210   0.30019   0.47381   0.01267  Uiso   1.00
O10    O     0.85410   0.41172   0.81928   0.01267  Uiso   1.00
O11    O     0.80860   0.33039   0.51961   0.01267  Uiso   1.00
O12    O     0.68660   0.36311   0.77729   0.01267  Uiso   1.00
O13    O     0.85790   0.52619   0.69981   0.01267  Uiso   1.00
O14    O     0.64590   0.18072   0.58828   0.01267  Uiso   1.00
O15    O     0.69140   0.48039   0.66961   0.01267  Uiso   1.00
O16    O     0.81340   0.22271   0.63689   0.01267  Uiso   1.00
