data_EXUMOZ_clean
_audit_creation_date              2014-07-02
_audit_creation_method            'Materials Studio'
_symmetry_space_group_name_H-M    'P1'
_symmetry_Int_Tables_number       1
_symmetry_cell_setting            triclinic
loop_
_symmetry_equiv_pos_as_xyz
  x,y,z
_cell_length_a                    9.0078
_cell_length_b                    9.2113
_cell_length_c                    9.5171
_cell_angle_alpha                 115.6710
_cell_angle_beta                  114.9200
_cell_angle_gamma                 96.1547
loop_
_atom_site_label
_atom_site_type_symbol
_atom_site_fract_x
_atom_site_fract_y
_atom_site_fract_z
_atom_site_U_iso_or_equiv
_atom_site_adp_type
_atom_site_occupancy
Mn1    Mn    0.78211   0.03211   0.06422   0.01267  Uiso   1.00
Mn2    Mn    0.21789   0.96789   0.93578   0.01267  Uiso   1.00
H1     H     0.18280   0.48790   0.75680   0.01267  Uiso   1.00
H2     H     0.36980   0.58000   0.47820   0.01267  Uiso   1.00
H3     H     0.14660   0.33610   0.21620   0.01267  Uiso   1.00
H4     H     0.07400   0.26890   0.75680   0.01267  Uiso   1.00
H5     H     0.60840   0.89820   0.47820   0.01267  Uiso   1.00
H6     H     0.56960   0.88010   0.21620   0.01267  Uiso   1.00
H7     H     0.81720   0.51210   0.24320   0.01267  Uiso   1.00
H8     H     0.63020   0.42000   0.52180   0.01267  Uiso   1.00
H9     H     0.85340   0.66390   0.78380   0.01267  Uiso   1.00
H10    H     0.92600   0.73110   0.24320   0.01267  Uiso   1.00
H11    H     0.39160   0.10180   0.52180   0.01267  Uiso   1.00
H12    H     0.43040   0.11990   0.78380   0.01267  Uiso   1.00
C1     C     0.05523   0.30473   0.48826   0.01267  Uiso   1.00
C2     C     0.17930   0.45750   0.64840   0.01267  Uiso   1.00
C3     C     0.29803   0.56473   0.64726   0.01267  Uiso   1.00
C4     C     0.28831   0.51461   0.48322   0.01267  Uiso   1.00
C5     C     0.15552   0.36582   0.32684   0.01267  Uiso   1.00
C6     C     0.42760   0.73450   0.82180   0.01267  Uiso   1.00
C7     C     0.93303   0.18353   0.48826   0.01267  Uiso   1.00
C8     C     0.96910   0.19090   0.64840   0.01267  Uiso   1.00
C9     C     0.84923   0.08253   0.64726   0.01267  Uiso   1.00
C10    C     0.69491   0.96861   0.48322   0.01267  Uiso   1.00
C11    C     0.67132   0.96102   0.32684   0.01267  Uiso   1.00
C12    C     0.89420   0.08730   0.82180   0.01267  Uiso   1.00
C13    C     0.94477   0.69527   0.51174   0.01267  Uiso   1.00
C14    C     0.82070   0.54250   0.35160   0.01267  Uiso   1.00
C15    C     0.70197   0.43527   0.35274   0.01267  Uiso   1.00
C16    C     0.71169   0.48539   0.51678   0.01267  Uiso   1.00
C17    C     0.84448   0.63418   0.67316   0.01267  Uiso   1.00
C18    C     0.57240   0.26550   0.17820   0.01267  Uiso   1.00
C19    C     0.06697   0.81647   0.51174   0.01267  Uiso   1.00
C20    C     0.03090   0.80910   0.35160   0.01267  Uiso   1.00
C21    C     0.15077   0.91747   0.35274   0.01267  Uiso   1.00
C22    C     0.30509   0.03139   0.51678   0.01267  Uiso   1.00
C23    C     0.32868   0.03898   0.67316   0.01267  Uiso   1.00
C24    C     0.10580   0.91270   0.17820   0.01267  Uiso   1.00
N1     N     0.03817   0.26137   0.32634   0.01267  Uiso   1.00
N2     N     0.78817   0.06497   0.32634   0.01267  Uiso   1.00
N3     N     0.96183   0.73863   0.67366   0.01267  Uiso   1.00
N4     N     0.21183   0.93503   0.67366   0.01267  Uiso   1.00
O1     O     0.57531   0.78701   0.84842   0.01267  Uiso   1.00
O2     O     0.37454   0.80734   0.92688   0.01267  Uiso   1.00
O3     O     0.77311   0.06141   0.84842   0.01267  Uiso   1.00
O4     O     0.05234   0.11954   0.92688   0.01267  Uiso   1.00
O5     O     0.42469   0.21299   0.15158   0.01267  Uiso   1.00
O6     O     0.62546   0.19266   0.07312   0.01267  Uiso   1.00
O7     O     0.22689   0.93859   0.15158   0.01267  Uiso   1.00
O8     O     0.94766   0.88046   0.07312   0.01267  Uiso   1.00
