data_EZUCOS_clean
_audit_creation_date              2014-07-02
_audit_creation_method            'Materials Studio'
_symmetry_space_group_name_H-M    'P1'
_symmetry_Int_Tables_number       1
_symmetry_cell_setting            triclinic
loop_
_symmetry_equiv_pos_as_xyz
  x,y,z
_cell_length_a                    9.8868
_cell_length_b                    13.6574
_cell_length_c                    17.5491
_cell_angle_alpha                 79.7654
_cell_angle_beta                  73.6390
_cell_angle_gamma                 68.7796
loop_
_atom_site_label
_atom_site_type_symbol
_atom_site_fract_x
_atom_site_fract_y
_atom_site_fract_z
_atom_site_U_iso_or_equiv
_atom_site_adp_type
_atom_site_occupancy
Cd1    Cd    0.74027   0.90238   0.93836   0.01267  Uiso   1.00
Cd2    Cd    0.58101   0.59762   0.56164   0.01267  Uiso   1.00
Cd3    Cd    0.25973   0.09762   0.06164   0.01267  Uiso   1.00
Cd4    Cd    0.41899   0.40238   0.43836   0.01267  Uiso   1.00
H1     H     0.78940   0.79780   0.77380   0.01267  Uiso   1.00
H2     H     0.93500   0.65850   0.69990   0.01267  Uiso   1.00
H3     H     0.18970   0.55920   0.85960   0.01267  Uiso   1.00
H4     H     0.04300   0.70440   0.92440   0.01267  Uiso   1.00
H5     H     0.50120   0.30840   0.82080   0.01267  Uiso   1.00
H6     H     0.48410   0.18640   0.92840   0.01267  Uiso   1.00
H7     H     0.06390   0.24530   0.94390   0.01267  Uiso   1.00
H8     H     0.06330   0.36780   0.83760   0.01267  Uiso   1.00
H9     H     0.97970   0.36860   0.66140   0.01267  Uiso   1.00
H10    H     0.92900   0.45930   0.71750   0.01267  Uiso   1.00
H11    H     0.11200   0.47700   0.55900   0.01267  Uiso   1.00
H12    H     0.36100   0.70220   0.72620   0.01267  Uiso   1.00
H13    H     0.29340   0.84150   0.80010   0.01267  Uiso   1.00
H14    H     0.60850   0.94080   0.64040   0.01267  Uiso   1.00
H15    H     0.67180   0.79560   0.57560   0.01267  Uiso   1.00
H16    H     0.63040   0.19160   0.67920   0.01267  Uiso   1.00
H17    H     0.59890   0.31360   0.57160   0.01267  Uiso   1.00
H18    H     0.25310   0.25470   0.55610   0.01267  Uiso   1.00
H19    H     0.26870   0.13220   0.66240   0.01267  Uiso   1.00
H20    H     0.00970   0.13140   0.83860   0.01267  Uiso   1.00
H21    H     0.10580   0.04070   0.78250   0.01267  Uiso   1.00
H22    H     0.14800   0.02300   0.94100   0.01267  Uiso   1.00
H23    H     0.21060   0.20220   0.22620   0.01267  Uiso   1.00
H24    H     0.06500   0.34150   0.30010   0.01267  Uiso   1.00
H25    H     0.81030   0.44080   0.14040   0.01267  Uiso   1.00
H26    H     0.95700   0.29560   0.07560   0.01267  Uiso   1.00
H27    H     0.49880   0.69160   0.17920   0.01267  Uiso   1.00
H28    H     0.51590   0.81360   0.07160   0.01267  Uiso   1.00
H29    H     0.93610   0.75470   0.05610   0.01267  Uiso   1.00
H30    H     0.93670   0.63220   0.16240   0.01267  Uiso   1.00
H31    H     0.02030   0.63140   0.33860   0.01267  Uiso   1.00
H32    H     0.07100   0.54070   0.28250   0.01267  Uiso   1.00
H33    H     0.88800   0.52300   0.44100   0.01267  Uiso   1.00
H34    H     0.63900   0.29780   0.27380   0.01267  Uiso   1.00
H35    H     0.70660   0.15850   0.19990   0.01267  Uiso   1.00
H36    H     0.39150   0.05920   0.35960   0.01267  Uiso   1.00
H37    H     0.32820   0.20440   0.42440   0.01267  Uiso   1.00
H38    H     0.36960   0.80840   0.32080   0.01267  Uiso   1.00
H39    H     0.40110   0.68640   0.42840   0.01267  Uiso   1.00
H40    H     0.74690   0.74530   0.44390   0.01267  Uiso   1.00
H41    H     0.73130   0.86780   0.33760   0.01267  Uiso   1.00
H42    H     0.99030   0.86860   0.16140   0.01267  Uiso   1.00
H43    H     0.89420   0.95930   0.21750   0.01267  Uiso   1.00
H44    H     0.85200   0.97700   0.05900   0.01267  Uiso   1.00
C1     C     0.87100   0.74910   0.79110   0.01267  Uiso   1.00
C2     C     0.95770   0.66510   0.74630   0.01267  Uiso   1.00
C3     C     0.08080   0.58960   0.77140   0.01267  Uiso   1.00
C4     C     0.10940   0.60670   0.84050   0.01267  Uiso   1.00
C5     C     0.01910   0.69350   0.87970   0.01267  Uiso   1.00
C6     C     0.28160   0.35680   0.81780   0.01267  Uiso   1.00
C7     C     0.41020   0.29840   0.84540   0.01267  Uiso   1.00
C8     C     0.39810   0.22480   0.91060   0.01267  Uiso   1.00
C9     C     0.15200   0.25970   0.91930   0.01267  Uiso   1.00
C10    C     0.15010   0.33360   0.85560   0.01267  Uiso   1.00
C11    C     0.30060   0.53970   0.59510   0.01267  Uiso   1.00
C12    C     0.17620   0.50270   0.64790   0.01267  Uiso   1.00
C13    C     0.08800   0.47480   0.61860   0.01267  Uiso   1.00
C14    C     0.95500   0.44390   0.66230   0.01267  Uiso   1.00
C15    C     0.82130   0.50130   0.62650   0.01267  Uiso   1.00
C16    C     0.41120   0.75090   0.70890   0.01267  Uiso   1.00
C17    C     0.36910   0.83490   0.75370   0.01267  Uiso   1.00
C18    C     0.44180   0.91040   0.72860   0.01267  Uiso   1.00
C19    C     0.55660   0.89330   0.65950   0.01267  Uiso   1.00
C20    C     0.59230   0.80650   0.62030   0.01267  Uiso   1.00
C21    C     0.45620   0.14320   0.68220   0.01267  Uiso   1.00
C22    C     0.55400   0.20160   0.65460   0.01267  Uiso   1.00
C23    C     0.53350   0.27520   0.58940   0.01267  Uiso   1.00
C24    C     0.33100   0.24030   0.58070   0.01267  Uiso   1.00
C25    C     0.33930   0.16640   0.64440   0.01267  Uiso   1.00
C26    C     0.43540   0.96030   0.90490   0.01267  Uiso   1.00
C27    C     0.32680   0.99730   0.85210   0.01267  Uiso   1.00
C28    C     0.18140   0.02520   0.88140   0.01267  Uiso   1.00
C29    C     0.06120   0.05610   0.83770   0.01267  Uiso   1.00
C30    C     0.94910   0.99870   0.87350   0.01267  Uiso   1.00
C31    C     0.12900   0.25090   0.20890   0.01267  Uiso   1.00
C32    C     0.04230   0.33490   0.25370   0.01267  Uiso   1.00
C33    C     0.91920   0.41040   0.22860   0.01267  Uiso   1.00
C34    C     0.89060   0.39330   0.15950   0.01267  Uiso   1.00
C35    C     0.98090   0.30650   0.12030   0.01267  Uiso   1.00
C36    C     0.71840   0.64320   0.18220   0.01267  Uiso   1.00
C37    C     0.58980   0.70160   0.15460   0.01267  Uiso   1.00
C38    C     0.60190   0.77520   0.08940   0.01267  Uiso   1.00
C39    C     0.84800   0.74030   0.08070   0.01267  Uiso   1.00
C40    C     0.84990   0.66640   0.14440   0.01267  Uiso   1.00
C41    C     0.69940   0.46030   0.40490   0.01267  Uiso   1.00
C42    C     0.82380   0.49730   0.35210   0.01267  Uiso   1.00
C43    C     0.91200   0.52520   0.38140   0.01267  Uiso   1.00
C44    C     0.04500   0.55610   0.33770   0.01267  Uiso   1.00
C45    C     0.17870   0.49870   0.37350   0.01267  Uiso   1.00
C46    C     0.58880   0.24910   0.29110   0.01267  Uiso   1.00
C47    C     0.63090   0.16510   0.24630   0.01267  Uiso   1.00
C48    C     0.55820   0.08960   0.27140   0.01267  Uiso   1.00
C49    C     0.44340   0.10670   0.34050   0.01267  Uiso   1.00
C50    C     0.40770   0.19350   0.37970   0.01267  Uiso   1.00
C51    C     0.54380   0.85680   0.31780   0.01267  Uiso   1.00
C52    C     0.44600   0.79840   0.34540   0.01267  Uiso   1.00
C53    C     0.46650   0.72480   0.41060   0.01267  Uiso   1.00
C54    C     0.66900   0.75970   0.41930   0.01267  Uiso   1.00
C55    C     0.66070   0.83360   0.35560   0.01267  Uiso   1.00
C56    C     0.56460   0.03970   0.09510   0.01267  Uiso   1.00
C57    C     0.67320   0.00270   0.14790   0.01267  Uiso   1.00
C58    C     0.81860   0.97480   0.11860   0.01267  Uiso   1.00
C59    C     0.93880   0.94390   0.16230   0.01267  Uiso   1.00
C60    C     0.05090   0.00130   0.12650   0.01267  Uiso   1.00
N1     N     0.89700   0.76470   0.85790   0.01267  Uiso   1.00
N2     N     0.16220   0.49890   0.73170   0.01267  Uiso   1.00
N3     N     0.29270   0.43260   0.75560   0.01267  Uiso   1.00
N4     N     0.27390   0.20560   0.94900   0.01267  Uiso   1.00
N5     N     0.51960   0.73530   0.64210   0.01267  Uiso   1.00
N6     N     0.39280   0.00110   0.76830   0.01267  Uiso   1.00
N7     N     0.48090   0.06740   0.74440   0.01267  Uiso   1.00
N8     N     0.42850   0.29440   0.55100   0.01267  Uiso   1.00
N9     N     0.10300   0.23530   0.14210   0.01267  Uiso   1.00
N10    N     0.83780   0.50110   0.26830   0.01267  Uiso   1.00
N11    N     0.70730   0.56740   0.24440   0.01267  Uiso   1.00
N12    N     0.72610   0.79440   0.05100   0.01267  Uiso   1.00
N13    N     0.48040   0.26470   0.35790   0.01267  Uiso   1.00
N14    N     0.60720   0.99890   0.23170   0.01267  Uiso   1.00
N15    N     0.51910   0.93260   0.25560   0.01267  Uiso   1.00
N16    N     0.57150   0.70560   0.44900   0.01267  Uiso   1.00
O1     O     0.37494   0.56552   0.63080   0.01267  Uiso   1.00
O2     O     0.32193   0.54454   0.52040   0.01267  Uiso   1.00
O3     O     0.70610   0.47540   0.65280   0.01267  Uiso   1.00
O4     O     0.83008   0.57294   0.57050   0.01267  Uiso   1.00
O5     O     0.57126   0.93448   0.86920   0.01267  Uiso   1.00
O6     O     0.38687   0.95546   0.97960   0.01267  Uiso   1.00
O7     O     0.83430   0.02460   0.84720   0.01267  Uiso   1.00
O8     O     0.97352   0.92706   0.92950   0.01267  Uiso   1.00
O9     O     0.62506   0.43448   0.36920   0.01267  Uiso   1.00
O10    O     0.67807   0.45546   0.47960   0.01267  Uiso   1.00
O11    O     0.29390   0.52460   0.34720   0.01267  Uiso   1.00
O12    O     0.16992   0.42706   0.42950   0.01267  Uiso   1.00
O13    O     0.42874   0.06552   0.13080   0.01267  Uiso   1.00
O14    O     0.61313   0.04454   0.02040   0.01267  Uiso   1.00
O15    O     0.16570   0.97540   0.15280   0.01267  Uiso   1.00
O16    O     0.02648   0.07294   0.07050   0.01267  Uiso   1.00
