data_FAFJIH_clean
_audit_creation_date              2014-07-02
_audit_creation_method            'Materials Studio'
_symmetry_space_group_name_H-M    'P1'
_symmetry_Int_Tables_number       1
_symmetry_cell_setting            triclinic
loop_
_symmetry_equiv_pos_as_xyz
  x,y,z
_cell_length_a                    12.4895
_cell_length_b                    12.4895
_cell_length_c                    18.2540
_cell_angle_alpha                 98.7567
_cell_angle_beta                  98.7567
_cell_angle_gamma                 116.3780
loop_
_atom_site_label
_atom_site_type_symbol
_atom_site_fract_x
_atom_site_fract_y
_atom_site_fract_z
_atom_site_U_iso_or_equiv
_atom_site_adp_type
_atom_site_occupancy
Zn1    Zn    0.80218   0.65906   0.04091   0.01267  Uiso   1.00
Zn2    Zn    0.34094   0.19782   0.45909   0.01267  Uiso   1.00
Zn3    Zn    0.19782   0.34094   0.95909   0.01267  Uiso   1.00
Zn4    Zn    0.65906   0.80218   0.54091   0.01267  Uiso   1.00
Zn5    Zn    0.24855   0.75145   0.75000   0.01267  Uiso   1.00
Zn6    Zn    0.75145   0.24855   0.25000   0.01267  Uiso   1.00
B1     B     0.71590   0.02950   0.95000   0.01267  Uiso   1.00
B2     B     0.97050   0.28410   0.55000   0.01267  Uiso   1.00
B3     B     0.28410   0.97050   0.05000   0.01267  Uiso   1.00
B4     B     0.02950   0.71590   0.45000   0.01267  Uiso   1.00
H1     H     0.79900   0.96900   0.82000   0.01267  Uiso   1.00
H2     H     0.03600   0.11600   0.83100   0.01267  Uiso   1.00
H3     H     0.95400   0.23800   0.00900   0.01267  Uiso   1.00
H4     H     0.58100   0.70500   0.07200   0.01267  Uiso   1.00
H5     H     0.53600   0.88000   0.03900   0.01267  Uiso   1.00
H6     H     0.83800   0.89600   0.96400   0.01267  Uiso   1.00
H7     H     0.78700   0.06700   0.11800   0.01267  Uiso   1.00
H8     H     0.75300   0.35500   0.11000   0.01267  Uiso   1.00
H9     H     0.70800   0.26800   0.96300   0.01267  Uiso   1.00
H10    H     0.66250   0.12490   0.82160   0.01267  Uiso   1.00
H11    H     0.48200   0.97600   0.72600   0.01267  Uiso   1.00
H12    H     0.51300   0.81700   0.88900   0.01267  Uiso   1.00
H13    H     0.79300   0.53500   0.74000   0.01267  Uiso   1.00
H14    H     0.58300   0.35500   0.87000   0.01267  Uiso   1.00
H15    H     0.73500   0.63900   0.31500   0.01267  Uiso   1.00
H16    H     0.03100   0.20100   0.68000   0.01267  Uiso   1.00
H17    H     0.88400   0.96400   0.66900   0.01267  Uiso   1.00
H18    H     0.76200   0.04600   0.49100   0.01267  Uiso   1.00
H19    H     0.29500   0.41900   0.42800   0.01267  Uiso   1.00
H20    H     0.12000   0.46400   0.46100   0.01267  Uiso   1.00
H21    H     0.10400   0.16200   0.53600   0.01267  Uiso   1.00
H22    H     0.93300   0.21300   0.38200   0.01267  Uiso   1.00
H23    H     0.64500   0.24700   0.39000   0.01267  Uiso   1.00
H24    H     0.73200   0.29200   0.53700   0.01267  Uiso   1.00
H25    H     0.87510   0.33750   0.67840   0.01267  Uiso   1.00
H26    H     0.02400   0.51800   0.77400   0.01267  Uiso   1.00
H27    H     0.18300   0.48700   0.61100   0.01267  Uiso   1.00
H28    H     0.46500   0.20700   0.76000   0.01267  Uiso   1.00
H29    H     0.64500   0.41700   0.63000   0.01267  Uiso   1.00
H30    H     0.36100   0.26500   0.18500   0.01267  Uiso   1.00
H31    H     0.20100   0.03100   0.18000   0.01267  Uiso   1.00
H32    H     0.96400   0.88400   0.16900   0.01267  Uiso   1.00
H33    H     0.04600   0.76200   0.99100   0.01267  Uiso   1.00
H34    H     0.41900   0.29500   0.92800   0.01267  Uiso   1.00
H35    H     0.46400   0.12000   0.96100   0.01267  Uiso   1.00
H36    H     0.16200   0.10400   0.03600   0.01267  Uiso   1.00
H37    H     0.21300   0.93300   0.88200   0.01267  Uiso   1.00
H38    H     0.24700   0.64500   0.89000   0.01267  Uiso   1.00
H39    H     0.29200   0.73200   0.03700   0.01267  Uiso   1.00
H40    H     0.33750   0.87510   0.17840   0.01267  Uiso   1.00
H41    H     0.51800   0.02400   0.27400   0.01267  Uiso   1.00
H42    H     0.48700   0.18300   0.11100   0.01267  Uiso   1.00
H43    H     0.20700   0.46500   0.26000   0.01267  Uiso   1.00
H44    H     0.41700   0.64500   0.13000   0.01267  Uiso   1.00
H45    H     0.26500   0.36100   0.68500   0.01267  Uiso   1.00
H46    H     0.96900   0.79900   0.32000   0.01267  Uiso   1.00
H47    H     0.11600   0.03600   0.33100   0.01267  Uiso   1.00
H48    H     0.23800   0.95400   0.50900   0.01267  Uiso   1.00
H49    H     0.70500   0.58100   0.57200   0.01267  Uiso   1.00
H50    H     0.88000   0.53600   0.53900   0.01267  Uiso   1.00
H51    H     0.89600   0.83800   0.46400   0.01267  Uiso   1.00
H52    H     0.06700   0.78700   0.61800   0.01267  Uiso   1.00
H53    H     0.35500   0.75300   0.61000   0.01267  Uiso   1.00
H54    H     0.26800   0.70800   0.46300   0.01267  Uiso   1.00
H55    H     0.12490   0.66250   0.32160   0.01267  Uiso   1.00
H56    H     0.97600   0.48200   0.22600   0.01267  Uiso   1.00
H57    H     0.81700   0.51300   0.38900   0.01267  Uiso   1.00
H58    H     0.53500   0.79300   0.24000   0.01267  Uiso   1.00
H59    H     0.35500   0.58300   0.37000   0.01267  Uiso   1.00
H60    H     0.63900   0.73500   0.81500   0.01267  Uiso   1.00
C1     C     0.85810   0.03410   0.85540   0.01267  Uiso   1.00
C2     C     0.97370   0.11450   0.85480   0.01267  Uiso   1.00
C3     C     0.93910   0.18770   0.96040   0.01267  Uiso   1.00
C4     C     0.62260   0.76120   0.03820   0.01267  Uiso   1.00
C5     C     0.60450   0.85230   0.01930   0.01267  Uiso   1.00
C6     C     0.76370   0.85610   0.98080   0.01267  Uiso   1.00
C7     C     0.75730   0.13310   0.09230   0.01267  Uiso   1.00
C8     C     0.75600   0.30260   0.08700   0.01267  Uiso   1.00
C9     C     0.72130   0.23610   0.01310   0.01267  Uiso   1.00
C10    C     0.60140   0.04780   0.82240   0.01267  Uiso   1.00
C11    C     0.49630   0.97810   0.76920   0.01267  Uiso   1.00
C12    C     0.49730   0.88150   0.85550   0.01267  Uiso   1.00
C13    C     0.79340   0.55160   0.89080   0.01267  Uiso   1.00
C14    C     0.73040   0.47460   0.74660   0.01267  Uiso   1.00
C15    C     0.70830   0.45530   0.81660   0.01267  Uiso   1.00
C16    C     0.60720   0.35180   0.81950   0.01267  Uiso   1.00
C17    C     0.71830   0.61330   0.17250   0.01267  Uiso   1.00
C18    C     0.62890   0.52890   0.21220   0.01267  Uiso   1.00
C19    C     0.65140   0.55980   0.29220   0.01267  Uiso   1.00
C20    C     0.52130   0.42570   0.16930   0.01267  Uiso   1.00
C21    C     0.96590   0.14190   0.64460   0.01267  Uiso   1.00
C22    C     0.88550   0.02630   0.64520   0.01267  Uiso   1.00
C23    C     0.81230   0.06090   0.53960   0.01267  Uiso   1.00
C24    C     0.23880   0.37740   0.46180   0.01267  Uiso   1.00
C25    C     0.14770   0.39550   0.48070   0.01267  Uiso   1.00
C26    C     0.14390   0.23630   0.51920   0.01267  Uiso   1.00
C27    C     0.86690   0.24270   0.40770   0.01267  Uiso   1.00
C28    C     0.69740   0.24400   0.41300   0.01267  Uiso   1.00
C29    C     0.76390   0.27870   0.48690   0.01267  Uiso   1.00
C30    C     0.95220   0.39860   0.67760   0.01267  Uiso   1.00
C31    C     0.02190   0.50370   0.73080   0.01267  Uiso   1.00
C32    C     0.11850   0.50270   0.64450   0.01267  Uiso   1.00
C33    C     0.44840   0.20660   0.60920   0.01267  Uiso   1.00
C34    C     0.52540   0.26960   0.75340   0.01267  Uiso   1.00
C35    C     0.54470   0.29170   0.68340   0.01267  Uiso   1.00
C36    C     0.64820   0.39280   0.68050   0.01267  Uiso   1.00
C37    C     0.38670   0.28170   0.32750   0.01267  Uiso   1.00
C38    C     0.47110   0.37110   0.28780   0.01267  Uiso   1.00
C39    C     0.44020   0.34860   0.20780   0.01267  Uiso   1.00
C40    C     0.57430   0.47870   0.33070   0.01267  Uiso   1.00
C41    C     0.14190   0.96590   0.14460   0.01267  Uiso   1.00
C42    C     0.02630   0.88550   0.14520   0.01267  Uiso   1.00
C43    C     0.06090   0.81230   0.03960   0.01267  Uiso   1.00
C44    C     0.37740   0.23880   0.96180   0.01267  Uiso   1.00
C45    C     0.39550   0.14770   0.98070   0.01267  Uiso   1.00
C46    C     0.23630   0.14390   0.01920   0.01267  Uiso   1.00
C47    C     0.24270   0.86690   0.90770   0.01267  Uiso   1.00
C48    C     0.24400   0.69740   0.91300   0.01267  Uiso   1.00
C49    C     0.27870   0.76390   0.98690   0.01267  Uiso   1.00
C50    C     0.39860   0.95220   0.17760   0.01267  Uiso   1.00
C51    C     0.50370   0.02190   0.23080   0.01267  Uiso   1.00
C52    C     0.50270   0.11850   0.14450   0.01267  Uiso   1.00
C53    C     0.20660   0.44840   0.10920   0.01267  Uiso   1.00
C54    C     0.26960   0.52540   0.25340   0.01267  Uiso   1.00
C55    C     0.29170   0.54470   0.18340   0.01267  Uiso   1.00
C56    C     0.39280   0.64820   0.18050   0.01267  Uiso   1.00
C57    C     0.28170   0.38670   0.82750   0.01267  Uiso   1.00
C58    C     0.37110   0.47110   0.78780   0.01267  Uiso   1.00
C59    C     0.34860   0.44020   0.70780   0.01267  Uiso   1.00
C60    C     0.47870   0.57430   0.83070   0.01267  Uiso   1.00
C61    C     0.03410   0.85810   0.35540   0.01267  Uiso   1.00
C62    C     0.11450   0.97370   0.35480   0.01267  Uiso   1.00
C63    C     0.18770   0.93910   0.46040   0.01267  Uiso   1.00
C64    C     0.76120   0.62260   0.53820   0.01267  Uiso   1.00
C65    C     0.85230   0.60450   0.51930   0.01267  Uiso   1.00
C66    C     0.85610   0.76370   0.48080   0.01267  Uiso   1.00
C67    C     0.13310   0.75730   0.59230   0.01267  Uiso   1.00
C68    C     0.30260   0.75600   0.58700   0.01267  Uiso   1.00
C69    C     0.23610   0.72130   0.51310   0.01267  Uiso   1.00
C70    C     0.04780   0.60140   0.32240   0.01267  Uiso   1.00
C71    C     0.97810   0.49630   0.26920   0.01267  Uiso   1.00
C72    C     0.88150   0.49730   0.35550   0.01267  Uiso   1.00
C73    C     0.55160   0.79340   0.39080   0.01267  Uiso   1.00
C74    C     0.47460   0.73040   0.24660   0.01267  Uiso   1.00
C75    C     0.45530   0.70830   0.31660   0.01267  Uiso   1.00
C76    C     0.35180   0.60720   0.31950   0.01267  Uiso   1.00
C77    C     0.61330   0.71830   0.67250   0.01267  Uiso   1.00
C78    C     0.52890   0.62890   0.71220   0.01267  Uiso   1.00
C79    C     0.55980   0.65140   0.79220   0.01267  Uiso   1.00
C80    C     0.42570   0.52130   0.66930   0.01267  Uiso   1.00
N1     N     0.02440   0.21200   0.92060   0.01267  Uiso   1.00
N2     N     0.83450   0.08110   0.92260   0.01267  Uiso   1.00
N3     N     0.72220   0.76200   0.01430   0.01267  Uiso   1.00
N4     N     0.69540   0.91460   0.98220   0.01267  Uiso   1.00
N5     N     0.77340   0.23800   0.13720   0.01267  Uiso   1.00
N6     N     0.72270   0.12870   0.01670   0.01267  Uiso   1.00
N7     N     0.60540   0.98720   0.87920   0.01267  Uiso   1.00
N8     N     0.42860   0.87200   0.78980   0.01267  Uiso   1.00
N9     N     0.78800   0.97560   0.57940   0.01267  Uiso   1.00
N10    N     0.91890   0.16550   0.57740   0.01267  Uiso   1.00
N11    N     0.23800   0.27780   0.48570   0.01267  Uiso   1.00
N12    N     0.08540   0.30460   0.51780   0.01267  Uiso   1.00
N13    N     0.76200   0.22660   0.36280   0.01267  Uiso   1.00
N14    N     0.87130   0.27730   0.48330   0.01267  Uiso   1.00
N15    N     0.01280   0.39460   0.62080   0.01267  Uiso   1.00
N16    N     0.12800   0.57140   0.71020   0.01267  Uiso   1.00
N17    N     0.97560   0.78800   0.07940   0.01267  Uiso   1.00
N18    N     0.16550   0.91890   0.07740   0.01267  Uiso   1.00
N19    N     0.27780   0.23800   0.98570   0.01267  Uiso   1.00
N20    N     0.30460   0.08540   0.01780   0.01267  Uiso   1.00
N21    N     0.22660   0.76200   0.86280   0.01267  Uiso   1.00
N22    N     0.27730   0.87130   0.98330   0.01267  Uiso   1.00
N23    N     0.39460   0.01280   0.12080   0.01267  Uiso   1.00
N24    N     0.57140   0.12800   0.21020   0.01267  Uiso   1.00
N25    N     0.21200   0.02440   0.42060   0.01267  Uiso   1.00
N26    N     0.08110   0.83450   0.42260   0.01267  Uiso   1.00
N27    N     0.76200   0.72220   0.51430   0.01267  Uiso   1.00
N28    N     0.91460   0.69540   0.48220   0.01267  Uiso   1.00
N29    N     0.23800   0.77340   0.63720   0.01267  Uiso   1.00
N30    N     0.12870   0.72270   0.51670   0.01267  Uiso   1.00
N31    N     0.98720   0.60540   0.37920   0.01267  Uiso   1.00
N32    N     0.87200   0.42860   0.28980   0.01267  Uiso   1.00
O1     O     0.87580   0.65040   0.88770   0.01267  Uiso   1.00
O2     O     0.76330   0.52590   0.95370   0.01267  Uiso   1.00
O3     O     0.79390   0.72070   0.20720   0.01267  Uiso   1.00
O4     O     0.70590   0.56210   0.10270   0.01267  Uiso   1.00
O5     O     0.34960   0.12420   0.61230   0.01267  Uiso   1.00
O6     O     0.47410   0.23670   0.54630   0.01267  Uiso   1.00
O7     O     0.27930   0.20610   0.29280   0.01267  Uiso   1.00
O8     O     0.43790   0.29410   0.39730   0.01267  Uiso   1.00
O9     O     0.12420   0.34960   0.11230   0.01267  Uiso   1.00
O10    O     0.23670   0.47410   0.04630   0.01267  Uiso   1.00
O11    O     0.20610   0.27930   0.79280   0.01267  Uiso   1.00
O12    O     0.29410   0.43790   0.89730   0.01267  Uiso   1.00
O13    O     0.65040   0.87580   0.38770   0.01267  Uiso   1.00
O14    O     0.52590   0.76330   0.45370   0.01267  Uiso   1.00
O15    O     0.72070   0.79390   0.70720   0.01267  Uiso   1.00
O16    O     0.56210   0.70590   0.60270   0.01267  Uiso   1.00
