data_FAGFUQ_clean
_audit_creation_date              2014-07-02
_audit_creation_method            'Materials Studio'
_symmetry_space_group_name_H-M    'P1'
_symmetry_Int_Tables_number       1
_symmetry_cell_setting            triclinic
loop_
_symmetry_equiv_pos_as_xyz
  x,y,z
_cell_length_a                    12.0360
_cell_length_b                    15.3010
_cell_length_c                    16.9060
_cell_angle_alpha                 108.3000
_cell_angle_beta                  101.3940
_cell_angle_gamma                 102.2800
loop_
_atom_site_label
_atom_site_type_symbol
_atom_site_fract_x
_atom_site_fract_y
_atom_site_fract_z
_atom_site_U_iso_or_equiv
_atom_site_adp_type
_atom_site_occupancy
Co1    Co    0.70292   0.39626   0.91080   0.01267  Uiso   1.00
Co2    Co    0.29708   0.60374   0.08920   0.01267  Uiso   1.00
Co3    Co    0.00000   0.50000  -0.00000   0.01267  Uiso   1.00
H1     H     0.03990   0.11770   0.27140   0.01267  Uiso   1.00
H2     H     0.04930   0.21360   0.34650   0.01267  Uiso   1.00
H3     H     0.70200   0.15380   0.17960   0.01267  Uiso   1.00
H4     H     0.67270   0.23350   0.08400   0.01267  Uiso   1.00
H5     H     0.01750   0.33310   0.13110   0.01267  Uiso   1.00
H6     H     0.05610   0.24710   0.22410   0.01267  Uiso   1.00
H7     H     0.13740   0.05290   0.37680   0.01267  Uiso   1.00
H8     H     0.09700   0.06180   0.46120   0.01267  Uiso   1.00
H9     H     0.29590   0.35450   0.55500   0.01267  Uiso   1.00
H10    H     0.44220   0.41730   0.68440   0.01267  Uiso   1.00
H11    H     0.40570   0.14870   0.68010   0.01267  Uiso   1.00
H12    H     0.26700   0.08710   0.54790   0.01267  Uiso   1.00
H13    H     0.84890   0.14310   0.40780   0.01267  Uiso   1.00
H14    H     0.97480   0.21160   0.46600   0.01267  Uiso   1.00
H15    H     0.08310   0.26330   0.61910   0.01267  Uiso   1.00
H16    H     0.06650   0.36280   0.74900   0.01267  Uiso   1.00
H17    H     0.72930   0.20200   0.69070   0.01267  Uiso   1.00
H18    H     0.74590   0.10250   0.56080   0.01267  Uiso   1.00
H19    H     0.82720   0.99250   0.29300   0.01267  Uiso   1.00
H20    H     0.90000   0.95520   0.35660   0.01267  Uiso   1.00
H21    H     0.03550   0.86030   0.13880   0.01267  Uiso   1.00
H22    H     0.95790   0.70520   0.03860   0.01267  Uiso   1.00
H23    H     0.67800   0.67090   0.13440   0.01267  Uiso   1.00
H24    H     0.76220   0.82670   0.24000   0.01267  Uiso   1.00
H25    H     0.02080   0.39730   0.88660   0.01267  Uiso   1.00
H26    H     0.96010   0.88230   0.72860   0.01267  Uiso   1.00
H27    H     0.95070   0.78640   0.65350   0.01267  Uiso   1.00
H28    H     0.29800   0.84620   0.82040   0.01267  Uiso   1.00
H29    H     0.32730   0.76650   0.91600   0.01267  Uiso   1.00
H30    H     0.98250   0.66690   0.86890   0.01267  Uiso   1.00
H31    H     0.94390   0.75290   0.77590   0.01267  Uiso   1.00
H32    H     0.86260   0.94710   0.62320   0.01267  Uiso   1.00
H33    H     0.90300   0.93820   0.53880   0.01267  Uiso   1.00
H34    H     0.70410   0.64550   0.44500   0.01267  Uiso   1.00
H35    H     0.55780   0.58270   0.31560   0.01267  Uiso   1.00
H36    H     0.59430   0.85130   0.31990   0.01267  Uiso   1.00
H37    H     0.73300   0.91290   0.45210   0.01267  Uiso   1.00
H38    H     0.15110   0.85690   0.59220   0.01267  Uiso   1.00
H39    H     0.02520   0.78840   0.53400   0.01267  Uiso   1.00
H40    H     0.91690   0.73670   0.38090   0.01267  Uiso   1.00
H41    H     0.93350   0.63720   0.25100   0.01267  Uiso   1.00
H42    H     0.27070   0.79800   0.30930   0.01267  Uiso   1.00
H43    H     0.25410   0.89750   0.43920   0.01267  Uiso   1.00
H44    H     0.17280   0.00750   0.70700   0.01267  Uiso   1.00
H45    H     0.10000   0.04480   0.64340   0.01267  Uiso   1.00
H46    H     0.96450   0.13970   0.86120   0.01267  Uiso   1.00
H47    H     0.04210   0.29480   0.96140   0.01267  Uiso   1.00
H48    H     0.32200   0.32910   0.86560   0.01267  Uiso   1.00
H49    H     0.23780   0.17330   0.76000   0.01267  Uiso   1.00
H50    H     0.97920   0.60270   0.11340   0.01267  Uiso   1.00
C1     C     0.98250   0.09220   0.37186   0.01267  Uiso   1.00
C2     C     0.00060   0.14770   0.31263   0.01267  Uiso   1.00
C3     C     0.87870   0.19250   0.21175   0.01267  Uiso   1.00
C4     C     0.76730   0.18880   0.16950   0.01267  Uiso   1.00
C5     C     0.74890   0.23610   0.11158   0.01267  Uiso   1.00
C6     C     0.84610   0.28640   0.09646   0.01267  Uiso   1.00
C7     C     0.95380   0.29380   0.13912   0.01267  Uiso   1.00
C8     C     0.97940   0.24450   0.19774   0.01267  Uiso   1.00
C9     C     0.83090   0.33970   0.03692   0.01267  Uiso   1.00
C10    C     0.10440   0.09080   0.41841   0.01267  Uiso   1.00
C11    C     0.26340   0.21440   0.53608   0.01267  Uiso   1.00
C12    C     0.31870   0.31270   0.58010   0.01267  Uiso   1.00
C13    C     0.40420   0.35140   0.65800   0.01267  Uiso   1.00
C14    C     0.43190   0.28740   0.69598   0.01267  Uiso   1.00
C15    C     0.38260   0.19000   0.65444   0.01267  Uiso   1.00
C16    C     0.29990   0.15340   0.57577   0.01267  Uiso   1.00
C17    C     0.52050   0.32880   0.78593   0.01267  Uiso   1.00
C18    C     0.92710   0.14470   0.43800   0.01267  Uiso   1.00
C19    C     0.91620   0.17310   0.57710   0.01267  Uiso   1.00
C20    C     0.01220   0.25100   0.63350   0.01267  Uiso   1.00
C21    C     0.00230   0.31060   0.71130   0.01267  Uiso   1.00
C22    C     0.89630   0.29228   0.73273   0.01267  Uiso   1.00
C23    C     0.80020   0.21430   0.67640   0.01267  Uiso   1.00
C24    C     0.81020   0.15470   0.59850   0.01267  Uiso   1.00
C25    C     0.87300   0.35281   0.81351   0.01267  Uiso   1.00
C26    C     0.90620   0.99221   0.31964   0.01267  Uiso   1.00
C27    C     0.90570   0.85840   0.19869   0.01267  Uiso   1.00
C28    C     0.96430   0.82160   0.13852   0.01267  Uiso   1.00
C29    C     0.91820   0.72863   0.07872   0.01267  Uiso   1.00
C30    C     0.81150   0.66910   0.07802   0.01267  Uiso   1.00
C31    C     0.75150   0.70800   0.13663   0.01267  Uiso   1.00
C32    C     0.80060   0.80260   0.19913   0.01267  Uiso   1.00
C33    C     0.76460   0.56803   0.01769   0.01267  Uiso   1.00
C34    C     0.01750   0.90780   0.62814   0.01267  Uiso   1.00
C35    C     0.99940   0.85230   0.68737   0.01267  Uiso   1.00
C36    C     0.12130   0.80750   0.78825   0.01267  Uiso   1.00
C37    C     0.23270   0.81120   0.83050   0.01267  Uiso   1.00
C38    C     0.25110   0.76390   0.88842   0.01267  Uiso   1.00
C39    C     0.15390   0.71360   0.90354   0.01267  Uiso   1.00
C40    C     0.04620   0.70620   0.86088   0.01267  Uiso   1.00
C41    C     0.02060   0.75550   0.80226   0.01267  Uiso   1.00
C42    C     0.16910   0.66030   0.96308   0.01267  Uiso   1.00
C43    C     0.89560   0.90920   0.58159   0.01267  Uiso   1.00
C44    C     0.73660   0.78560   0.46392   0.01267  Uiso   1.00
C45    C     0.68130   0.68730   0.41990   0.01267  Uiso   1.00
C46    C     0.59580   0.64860   0.34200   0.01267  Uiso   1.00
C47    C     0.56810   0.71260   0.30402   0.01267  Uiso   1.00
C48    C     0.61740   0.81000   0.34556   0.01267  Uiso   1.00
C49    C     0.70010   0.84660   0.42423   0.01267  Uiso   1.00
C50    C     0.47950   0.67120   0.21407   0.01267  Uiso   1.00
C51    C     0.07290   0.85530   0.56200   0.01267  Uiso   1.00
C52    C     0.08380   0.82690   0.42290   0.01267  Uiso   1.00
C53    C     0.98780   0.74900   0.36650   0.01267  Uiso   1.00
C54    C     0.99770   0.68940   0.28870   0.01267  Uiso   1.00
C55    C     0.10370   0.70772   0.26727   0.01267  Uiso   1.00
C56    C     0.19980   0.78570   0.32360   0.01267  Uiso   1.00
C57    C     0.18980   0.84530   0.40150   0.01267  Uiso   1.00
C58    C     0.12700   0.64719   0.18649   0.01267  Uiso   1.00
C59    C     0.09380   0.00779   0.68036   0.01267  Uiso   1.00
C60    C     0.09430   0.14160   0.80131   0.01267  Uiso   1.00
C61    C     0.03570   0.17840   0.86148   0.01267  Uiso   1.00
C62    C     0.08180   0.27137   0.92128   0.01267  Uiso   1.00
C63    C     0.18850   0.33090   0.92198   0.01267  Uiso   1.00
C64    C     0.24850   0.29200   0.86337   0.01267  Uiso   1.00
C65    C     0.19940   0.19740   0.80087   0.01267  Uiso   1.00
C66    C     0.23540   0.43197   0.98231   0.01267  Uiso   1.00
O1     O     0.88647   0.14593   0.26829   0.01267  Uiso   1.00
O2     O     0.92271   0.38109   0.02435   0.01267  Uiso   1.00
O3     O     0.72582   0.33869   0.00275   0.01267  Uiso   1.00
O4     O     0.18024   0.18665   0.45969   0.01267  Uiso   1.00
O5     O     0.57764   0.41341   0.81489   0.01267  Uiso   1.00
O6     O     0.53957   0.27287   0.82547   0.01267  Uiso   1.00
O7     O     0.91687   0.10726   0.50045   0.01267  Uiso   1.00
O8     O     0.77523   0.33067   0.82470   0.01267  Uiso   1.00
O9     O     0.96803   0.42212   0.87032   0.01267  Uiso   1.00
O10    O     0.95814   0.95045   0.25451   0.01267  Uiso   1.00
O11    O     0.82877   0.52912   0.97342   0.01267  Uiso   1.00
O12    O     0.66221   0.51911   0.01035   0.01267  Uiso   1.00
O13    O     0.11353   0.85407   0.73171   0.01267  Uiso   1.00
O14    O     0.07729   0.61891   0.97565   0.01267  Uiso   1.00
O15    O     0.27418   0.66131   0.99725   0.01267  Uiso   1.00
O16    O     0.81976   0.81335   0.54031   0.01267  Uiso   1.00
O17    O     0.42236   0.58659   0.18511   0.01267  Uiso   1.00
O18    O     0.46043   0.72713   0.17453   0.01267  Uiso   1.00
O19    O     0.08313   0.89274   0.49955   0.01267  Uiso   1.00
O20    O     0.22477   0.66933   0.17530   0.01267  Uiso   1.00
O21    O     0.03197   0.57788   0.12968   0.01267  Uiso   1.00
O22    O     0.04186   0.04955   0.74549   0.01267  Uiso   1.00
O23    O     0.17123   0.47088   0.02658   0.01267  Uiso   1.00
O24    O     0.33779   0.48089   0.98965   0.01267  Uiso   1.00
