data_FAHFUR_clean
_audit_creation_date              2014-07-02
_audit_creation_method            'Materials Studio'
_symmetry_space_group_name_H-M    'P1'
_symmetry_Int_Tables_number       1
_symmetry_cell_setting            triclinic
loop_
_symmetry_equiv_pos_as_xyz
  x,y,z
_cell_length_a                    10.2570
_cell_length_b                    18.9009
_cell_length_c                    18.9009
_cell_angle_alpha                 90.0000
_cell_angle_beta                  90.0000
_cell_angle_gamma                 90.0000
loop_
_atom_site_label
_atom_site_type_symbol
_atom_site_fract_x
_atom_site_fract_y
_atom_site_fract_z
_atom_site_U_iso_or_equiv
_atom_site_adp_type
_atom_site_occupancy
Be1    Be    0.86880   0.18250   0.92940   0.01267  Uiso   1.00
Be2    Be    0.86880   0.81750   0.07060   0.01267  Uiso   1.00
Be3    Be    0.36880   0.57060   0.68250   0.01267  Uiso   1.00
Be4    Be    0.36880   0.42940   0.31750   0.01267  Uiso   1.00
Be5    Be    0.63120   0.31750   0.42940   0.01267  Uiso   1.00
Be6    Be    0.63120   0.68250   0.57060   0.01267  Uiso   1.00
Be7    Be    0.13120   0.92940   0.18250   0.01267  Uiso   1.00
Be8    Be    0.13120   0.07060   0.81750   0.01267  Uiso   1.00
Be9    Be    0.13120   0.81750   0.07060   0.01267  Uiso   1.00
Be10   Be    0.13120   0.18250   0.92940   0.01267  Uiso   1.00
Be11   Be    0.63120   0.42940   0.31750   0.01267  Uiso   1.00
Be12   Be    0.63120   0.57060   0.68250   0.01267  Uiso   1.00
Be13   Be    0.36880   0.68250   0.57060   0.01267  Uiso   1.00
Be14   Be    0.36880   0.31750   0.42940   0.01267  Uiso   1.00
Be15   Be    0.86880   0.07060   0.81750   0.01267  Uiso   1.00
Be16   Be    0.86880   0.92940   0.18250   0.01267  Uiso   1.00
H1     H     0.69450   0.31000   0.14740   0.01267  Uiso   1.00
H2     H     0.69450   0.69000   0.85260   0.01267  Uiso   1.00
H3     H     0.19450   0.35260   0.81000   0.01267  Uiso   1.00
H4     H     0.19450   0.64740   0.19000   0.01267  Uiso   1.00
H5     H     0.80550   0.19000   0.64740   0.01267  Uiso   1.00
H6     H     0.80550   0.81000   0.35260   0.01267  Uiso   1.00
H7     H     0.30550   0.14740   0.31000   0.01267  Uiso   1.00
H8     H     0.30550   0.85260   0.69000   0.01267  Uiso   1.00
H9     H     0.30550   0.69000   0.85260   0.01267  Uiso   1.00
H10    H     0.30550   0.31000   0.14740   0.01267  Uiso   1.00
H11    H     0.80550   0.64740   0.19000   0.01267  Uiso   1.00
H12    H     0.80550   0.35260   0.81000   0.01267  Uiso   1.00
H13    H     0.19450   0.81000   0.35260   0.01267  Uiso   1.00
H14    H     0.19450   0.19000   0.64740   0.01267  Uiso   1.00
H15    H     0.69450   0.85260   0.69000   0.01267  Uiso   1.00
H16    H     0.69450   0.14740   0.31000   0.01267  Uiso   1.00
H17    H     0.00000   0.15290   0.01740   0.01267  Uiso   1.00
H18    H     0.00000   0.84710   0.98260   0.01267  Uiso   1.00
H19    H     0.50000   0.48260   0.65290   0.01267  Uiso   1.00
H20    H     0.50000   0.51740   0.34710   0.01267  Uiso   1.00
H21    H     0.50000   0.34710   0.51740   0.01267  Uiso   1.00
H22    H     0.50000   0.65290   0.48260   0.01267  Uiso   1.00
H23    H     0.00000   0.01740   0.15290   0.01267  Uiso   1.00
H24    H     0.00000   0.98260   0.84710   0.01267  Uiso   1.00
H25    H     0.75020   0.09850   0.90150   0.01267  Uiso   1.00
H26    H     0.75020   0.90150   0.09850   0.01267  Uiso   1.00
H27    H     0.25020   0.59850   0.59850   0.01267  Uiso   1.00
H28    H     0.25020   0.40150   0.40150   0.01267  Uiso   1.00
H29    H     0.74980   0.40150   0.40150   0.01267  Uiso   1.00
H30    H     0.74980   0.59850   0.59850   0.01267  Uiso   1.00
H31    H     0.24980   0.90150   0.09850   0.01267  Uiso   1.00
H32    H     0.24980   0.09850   0.90150   0.01267  Uiso   1.00
H33    H     0.50000   0.21320   0.99280   0.01267  Uiso   1.00
H34    H     0.50000   0.78680   0.00720   0.01267  Uiso   1.00
H35    H     0.00000   0.50720   0.71320   0.01267  Uiso   1.00
H36    H     0.00000   0.49280   0.28680   0.01267  Uiso   1.00
H37    H     0.00000   0.28680   0.49280   0.01267  Uiso   1.00
H38    H     0.00000   0.71320   0.50720   0.01267  Uiso   1.00
H39    H     0.50000   0.99280   0.21320   0.01267  Uiso   1.00
H40    H     0.50000   0.00720   0.78680   0.01267  Uiso   1.00
C1     C     0.74480   0.24030   0.03190   0.01267  Uiso   1.00
C2     C     0.61810   0.25720   0.06590   0.01267  Uiso   1.00
C3     C     0.61600   0.29610   0.12710   0.01267  Uiso   1.00
C4     C     0.74480   0.75970   0.96810   0.01267  Uiso   1.00
C5     C     0.61810   0.74280   0.93410   0.01267  Uiso   1.00
C6     C     0.61600   0.70390   0.87290   0.01267  Uiso   1.00
C7     C     0.24480   0.46810   0.74030   0.01267  Uiso   1.00
C8     C     0.11810   0.43410   0.75720   0.01267  Uiso   1.00
C9     C     0.11600   0.37290   0.79610   0.01267  Uiso   1.00
C10    C     0.24480   0.53190   0.25970   0.01267  Uiso   1.00
C11    C     0.11810   0.56590   0.24280   0.01267  Uiso   1.00
C12    C     0.11600   0.62710   0.20390   0.01267  Uiso   1.00
C13    C     0.75520   0.25970   0.53190   0.01267  Uiso   1.00
C14    C     0.88190   0.24280   0.56590   0.01267  Uiso   1.00
C15    C     0.88400   0.20390   0.62710   0.01267  Uiso   1.00
C16    C     0.75520   0.74030   0.46810   0.01267  Uiso   1.00
C17    C     0.88190   0.75720   0.43410   0.01267  Uiso   1.00
C18    C     0.88400   0.79610   0.37290   0.01267  Uiso   1.00
C19    C     0.25520   0.03190   0.24030   0.01267  Uiso   1.00
C20    C     0.38190   0.06590   0.25720   0.01267  Uiso   1.00
C21    C     0.38400   0.12710   0.29610   0.01267  Uiso   1.00
C22    C     0.25520   0.96810   0.75970   0.01267  Uiso   1.00
C23    C     0.38190   0.93410   0.74280   0.01267  Uiso   1.00
C24    C     0.38400   0.87290   0.70390   0.01267  Uiso   1.00
C25    C     0.25520   0.75970   0.96810   0.01267  Uiso   1.00
C26    C     0.38190   0.74280   0.93410   0.01267  Uiso   1.00
C27    C     0.38400   0.70390   0.87290   0.01267  Uiso   1.00
C28    C     0.25520   0.24030   0.03190   0.01267  Uiso   1.00
C29    C     0.38190   0.25720   0.06590   0.01267  Uiso   1.00
C30    C     0.38400   0.29610   0.12710   0.01267  Uiso   1.00
C31    C     0.75520   0.53190   0.25970   0.01267  Uiso   1.00
C32    C     0.88190   0.56590   0.24280   0.01267  Uiso   1.00
C33    C     0.88400   0.62710   0.20390   0.01267  Uiso   1.00
C34    C     0.75520   0.46810   0.74030   0.01267  Uiso   1.00
C35    C     0.88190   0.43410   0.75720   0.01267  Uiso   1.00
C36    C     0.88400   0.37290   0.79610   0.01267  Uiso   1.00
C37    C     0.24480   0.74030   0.46810   0.01267  Uiso   1.00
C38    C     0.11810   0.75720   0.43410   0.01267  Uiso   1.00
C39    C     0.11600   0.79610   0.37290   0.01267  Uiso   1.00
C40    C     0.24480   0.25970   0.53190   0.01267  Uiso   1.00
C41    C     0.11810   0.24280   0.56590   0.01267  Uiso   1.00
C42    C     0.11600   0.20390   0.62710   0.01267  Uiso   1.00
C43    C     0.74480   0.96810   0.75970   0.01267  Uiso   1.00
C44    C     0.61810   0.93410   0.74280   0.01267  Uiso   1.00
C45    C     0.61600   0.87290   0.70390   0.01267  Uiso   1.00
C46    C     0.74480   0.03190   0.24030   0.01267  Uiso   1.00
C47    C     0.61810   0.06590   0.25720   0.01267  Uiso   1.00
C48    C     0.61600   0.12710   0.29610   0.01267  Uiso   1.00
C49    C     0.50000   0.35720   0.22430   0.01267  Uiso   1.00
C50    C     0.50000   0.31510   0.15930   0.01267  Uiso   1.00
C51    C     0.50000   0.23860   0.03500   0.01267  Uiso   1.00
C52    C     0.50000   0.64280   0.77570   0.01267  Uiso   1.00
C53    C     0.50000   0.68490   0.84070   0.01267  Uiso   1.00
C54    C     0.50000   0.76140   0.96500   0.01267  Uiso   1.00
C55    C     0.00000   0.27570   0.85720   0.01267  Uiso   1.00
C56    C     0.00000   0.34070   0.81510   0.01267  Uiso   1.00
C57    C     0.00000   0.46500   0.73860   0.01267  Uiso   1.00
C58    C     0.00000   0.72430   0.14280   0.01267  Uiso   1.00
C59    C     0.00000   0.65930   0.18490   0.01267  Uiso   1.00
C60    C     0.00000   0.53500   0.26140   0.01267  Uiso   1.00
C61    C     0.00000   0.14280   0.72430   0.01267  Uiso   1.00
C62    C     0.00000   0.18490   0.65930   0.01267  Uiso   1.00
C63    C     0.00000   0.26140   0.53500   0.01267  Uiso   1.00
C64    C     0.00000   0.85720   0.27570   0.01267  Uiso   1.00
C65    C     0.00000   0.81510   0.34070   0.01267  Uiso   1.00
C66    C     0.00000   0.73860   0.46500   0.01267  Uiso   1.00
C67    C     0.50000   0.22430   0.35720   0.01267  Uiso   1.00
C68    C     0.50000   0.15930   0.31510   0.01267  Uiso   1.00
C69    C     0.50000   0.03500   0.23860   0.01267  Uiso   1.00
C70    C     0.50000   0.77570   0.64280   0.01267  Uiso   1.00
C71    C     0.50000   0.84070   0.68490   0.01267  Uiso   1.00
C72    C     0.50000   0.96500   0.76140   0.01267  Uiso   1.00
O1     O     0.74180   0.20023   0.97712   0.01267  Uiso   1.00
O2     O     0.84510   0.26230   0.05760   0.01267  Uiso   1.00
O3     O     0.60980   0.37435   0.25182   0.01267  Uiso   1.00
O4     O     0.74180   0.79977   0.02288   0.01267  Uiso   1.00
O5     O     0.84510   0.73770   0.94240   0.01267  Uiso   1.00
O6     O     0.60980   0.62565   0.74818   0.01267  Uiso   1.00
O7     O     0.24180   0.52288   0.70023   0.01267  Uiso   1.00
O8     O     0.34510   0.44240   0.76230   0.01267  Uiso   1.00
O9     O     0.10980   0.24818   0.87435   0.01267  Uiso   1.00
O10    O     0.24180   0.47712   0.29977   0.01267  Uiso   1.00
O11    O     0.34510   0.55760   0.23770   0.01267  Uiso   1.00
O12    O     0.10980   0.75182   0.12565   0.01267  Uiso   1.00
O13    O     0.75820   0.29977   0.47712   0.01267  Uiso   1.00
O14    O     0.65490   0.23770   0.55760   0.01267  Uiso   1.00
O15    O     0.89020   0.12565   0.75182   0.01267  Uiso   1.00
O16    O     0.75820   0.70023   0.52288   0.01267  Uiso   1.00
O17    O     0.65490   0.76230   0.44240   0.01267  Uiso   1.00
O18    O     0.89020   0.87435   0.24818   0.01267  Uiso   1.00
O19    O     0.25820   0.97712   0.20023   0.01267  Uiso   1.00
O20    O     0.15490   0.05760   0.26230   0.01267  Uiso   1.00
O21    O     0.39020   0.25182   0.37435   0.01267  Uiso   1.00
O22    O     0.25820   0.02288   0.79977   0.01267  Uiso   1.00
O23    O     0.15490   0.94240   0.73770   0.01267  Uiso   1.00
O24    O     0.39020   0.74818   0.62565   0.01267  Uiso   1.00
O25    O     0.25820   0.79977   0.02288   0.01267  Uiso   1.00
O26    O     0.15490   0.73770   0.94240   0.01267  Uiso   1.00
O27    O     0.39020   0.62565   0.74818   0.01267  Uiso   1.00
O28    O     0.25820   0.20023   0.97712   0.01267  Uiso   1.00
O29    O     0.15490   0.26230   0.05760   0.01267  Uiso   1.00
O30    O     0.39020   0.37435   0.25182   0.01267  Uiso   1.00
O31    O     0.75820   0.47712   0.29977   0.01267  Uiso   1.00
O32    O     0.65490   0.55760   0.23770   0.01267  Uiso   1.00
O33    O     0.89020   0.75182   0.12565   0.01267  Uiso   1.00
O34    O     0.75820   0.52288   0.70023   0.01267  Uiso   1.00
O35    O     0.65490   0.44240   0.76230   0.01267  Uiso   1.00
O36    O     0.89020   0.24818   0.87435   0.01267  Uiso   1.00
O37    O     0.24180   0.70023   0.52288   0.01267  Uiso   1.00
O38    O     0.34510   0.76230   0.44240   0.01267  Uiso   1.00
O39    O     0.10980   0.87435   0.24818   0.01267  Uiso   1.00
O40    O     0.24180   0.29977   0.47712   0.01267  Uiso   1.00
O41    O     0.34510   0.23770   0.55760   0.01267  Uiso   1.00
O42    O     0.10980   0.12565   0.75182   0.01267  Uiso   1.00
O43    O     0.74180   0.02288   0.79977   0.01267  Uiso   1.00
O44    O     0.84510   0.94240   0.73770   0.01267  Uiso   1.00
O45    O     0.60980   0.74818   0.62565   0.01267  Uiso   1.00
O46    O     0.74180   0.97712   0.20023   0.01267  Uiso   1.00
O47    O     0.84510   0.05760   0.26230   0.01267  Uiso   1.00
O48    O     0.60980   0.25182   0.37435   0.01267  Uiso   1.00
O49    O     0.00000   0.16860   0.97075   0.01267  Uiso   1.00
O50    O     0.00000   0.83140   0.02925   0.01267  Uiso   1.00
O51    O     0.50000   0.52925   0.66860   0.01267  Uiso   1.00
O52    O     0.50000   0.47075   0.33140   0.01267  Uiso   1.00
O53    O     0.50000   0.33140   0.47075   0.01267  Uiso   1.00
O54    O     0.50000   0.66860   0.52925   0.01267  Uiso   1.00
O55    O     0.00000   0.97075   0.16860   0.01267  Uiso   1.00
O56    O     0.00000   0.02925   0.83140   0.01267  Uiso   1.00
O57    O     0.82740   0.11675   0.88325   0.01267  Uiso   1.00
O58    O     0.82740   0.88325   0.11675   0.01267  Uiso   1.00
O59    O     0.32740   0.61675   0.61675   0.01267  Uiso   1.00
O60    O     0.32740   0.38325   0.38325   0.01267  Uiso   1.00
O61    O     0.67260   0.38325   0.38325   0.01267  Uiso   1.00
O62    O     0.67260   0.61675   0.61675   0.01267  Uiso   1.00
O63    O     0.17260   0.88325   0.11675   0.01267  Uiso   1.00
O64    O     0.17260   0.11675   0.88325   0.01267  Uiso   1.00
