data_FAMBUS_clean
_audit_creation_date              2014-07-02
_audit_creation_method            'Materials Studio'
_symmetry_space_group_name_H-M    'P1'
_symmetry_Int_Tables_number       1
_symmetry_cell_setting            triclinic
loop_
_symmetry_equiv_pos_as_xyz
  x,y,z
_cell_length_a                    9.8620
_cell_length_b                    10.3810
_cell_length_c                    18.3480
_cell_angle_alpha                 100.2220
_cell_angle_beta                  104.6130
_cell_angle_gamma                 91.2810
loop_
_atom_site_label
_atom_site_type_symbol
_atom_site_fract_x
_atom_site_fract_y
_atom_site_fract_z
_atom_site_U_iso_or_equiv
_atom_site_adp_type
_atom_site_occupancy
Cd1    Cd    0.44213   0.23997   0.34218   0.01267  Uiso   1.00
Cd2    Cd    0.55787   0.76003   0.65782   0.01267  Uiso   1.00
Cd3    Cd    0.50000   0.50000   0.50000   0.01267  Uiso   1.00
H1     H     0.43660   0.78220   0.34740   0.01267  Uiso   1.00
H2     H     0.34570   0.85860   0.13380   0.01267  Uiso   1.00
H3     H     0.35420   0.48130   0.16590   0.01267  Uiso   1.00
H4     H     0.09640   0.62230   0.03420   0.01267  Uiso   1.00
H5     H     0.15910   0.48560   0.03490   0.01267  Uiso   1.00
H6     H     0.27320   0.41160   0.92170   0.01267  Uiso   1.00
H7     H     0.20000   0.36070   0.78890   0.01267  Uiso   1.00
H8     H     0.89280   0.60820   0.79100   0.01267  Uiso   1.00
H9     H     0.96610   0.65910   0.92390   0.01267  Uiso   1.00
H10    H     0.94350   0.50120   0.67350   0.01267  Uiso   1.00
H11    H     0.94070   0.35580   0.68460   0.01267  Uiso   1.00
H12    H     0.25800   0.35160   0.56450   0.01267  Uiso   1.00
H13    H     0.94650   0.27340   0.36840   0.01267  Uiso   1.00
H14    H     0.85490   0.37000   0.57300   0.01267  Uiso   1.00
H15    H     0.56340   0.21780   0.65260   0.01267  Uiso   1.00
H16    H     0.65430   0.14140   0.86620   0.01267  Uiso   1.00
H17    H     0.64580   0.51870   0.83410   0.01267  Uiso   1.00
H18    H     0.90360   0.37770   0.96580   0.01267  Uiso   1.00
H19    H     0.84090   0.51440   0.96510   0.01267  Uiso   1.00
H20    H     0.72680   0.58840   0.07830   0.01267  Uiso   1.00
H21    H     0.80000   0.63930   0.21110   0.01267  Uiso   1.00
H22    H     0.10720   0.39180   0.20900   0.01267  Uiso   1.00
H23    H     0.03390   0.34090   0.07610   0.01267  Uiso   1.00
H24    H     0.05650   0.49880   0.32650   0.01267  Uiso   1.00
H25    H     0.05930   0.64420   0.31540   0.01267  Uiso   1.00
H26    H     0.74200   0.64840   0.43550   0.01267  Uiso   1.00
H27    H     0.05350   0.72660   0.63160   0.01267  Uiso   1.00
H28    H     0.14510   0.63000   0.42700   0.01267  Uiso   1.00
C1     C     0.39660   0.61930   0.26380   0.01267  Uiso   1.00
C2     C     0.41260   0.75260   0.29460   0.01267  Uiso   1.00
C3     C     0.39200   0.84000   0.24500   0.01267  Uiso   1.00
C4     C     0.35740   0.79860   0.16660   0.01267  Uiso   1.00
C5     C     0.34030   0.66230   0.13760   0.01267  Uiso   1.00
C6     C     0.36220   0.57100   0.18550   0.01267  Uiso   1.00
C7     C     0.42430   0.52640   0.31610   0.01267  Uiso   1.00
C8     C     0.40500   0.98560   0.27690   0.01267  Uiso   1.00
C9     C     0.16570   0.56790   0.01740   0.01267  Uiso   1.00
C10    C     0.12690   0.54040   0.93600   0.01267  Uiso   1.00
C11    C     0.19700   0.45100   0.89550   0.01267  Uiso   1.00
C12    C     0.15310   0.42050   0.81590   0.01267  Uiso   1.00
C13    C     0.03910   0.47940   0.77677   0.01267  Uiso   1.00
C14    C     0.96910   0.56880   0.81720   0.01267  Uiso   1.00
C15    C     0.01300   0.59930   0.89680   0.01267  Uiso   1.00
C16    C     0.00060   0.43610   0.69580   0.01267  Uiso   1.00
C17    C     0.06450   0.37100   0.58010   0.01267  Uiso   1.00
C18    C     0.16310   0.34500   0.53900   0.01267  Uiso   1.00
C19    C     0.12040   0.30800   0.45790   0.01267  Uiso   1.00
C20    C     0.97640   0.29680   0.42160   0.01267  Uiso   1.00
C21    C     0.87650   0.32040   0.46410   0.01267  Uiso   1.00
C22    C     0.92030   0.35620   0.54420   0.01267  Uiso   1.00
C23    C     0.22550   0.28180   0.41170   0.01267  Uiso   1.00
C24    C     0.72360   0.30310   0.42100   0.01267  Uiso   1.00
C25    C     0.60340   0.38070   0.73620   0.01267  Uiso   1.00
C26    C     0.58740   0.24740   0.70540   0.01267  Uiso   1.00
C27    C     0.60800   0.16000   0.75500   0.01267  Uiso   1.00
C28    C     0.64260   0.20140   0.83340   0.01267  Uiso   1.00
C29    C     0.65970   0.33770   0.86240   0.01267  Uiso   1.00
C30    C     0.63780   0.42900   0.81450   0.01267  Uiso   1.00
C31    C     0.57570   0.47360   0.68390   0.01267  Uiso   1.00
C32    C     0.59500   0.01440   0.72310   0.01267  Uiso   1.00
C33    C     0.83430   0.43210   0.98260   0.01267  Uiso   1.00
C34    C     0.87310   0.45960   0.06400   0.01267  Uiso   1.00
C35    C     0.80300   0.54900   0.10450   0.01267  Uiso   1.00
C36    C     0.84690   0.57950   0.18410   0.01267  Uiso   1.00
C37    C     0.96090   0.52060   0.22323   0.01267  Uiso   1.00
C38    C     0.03090   0.43120   0.18280   0.01267  Uiso   1.00
C39    C     0.98700   0.40070   0.10320   0.01267  Uiso   1.00
C40    C     0.99940   0.56390   0.30420   0.01267  Uiso   1.00
C41    C     0.93550   0.62900   0.41990   0.01267  Uiso   1.00
C42    C     0.83690   0.65500   0.46100   0.01267  Uiso   1.00
C43    C     0.87960   0.69200   0.54210   0.01267  Uiso   1.00
C44    C     0.02360   0.70320   0.57840   0.01267  Uiso   1.00
C45    C     0.12350   0.67960   0.53590   0.01267  Uiso   1.00
C46    C     0.07970   0.64380   0.45580   0.01267  Uiso   1.00
C47    C     0.77450   0.71820   0.58830   0.01267  Uiso   1.00
C48    C     0.27640   0.69690   0.57900   0.01267  Uiso   1.00
O1     O     0.45140   0.56330   0.38600   0.01267  Uiso   1.00
O2     O     0.40500   0.40610   0.28300   0.01267  Uiso   1.00
O3     O     0.44300   0.02040   0.34810   0.01267  Uiso   1.00
O4     O     0.38080   0.06790   0.23250   0.01267  Uiso   1.00
O5     O     0.30260   0.63170   0.05600   0.01267  Uiso   1.00
O6     O     0.10490   0.41190   0.65690   0.01267  Uiso   1.00
O7     O     0.35100   0.31310   0.44620   0.01267  Uiso   1.00
O8     O     0.18940   0.23200   0.34240   0.01267  Uiso   1.00
O9     O     0.68110   0.24510   0.35400   0.01267  Uiso   1.00
O10    O     0.64700   0.35040   0.46210   0.01267  Uiso   1.00
O11    O     0.54860   0.43670   0.61400   0.01267  Uiso   1.00
O12    O     0.59500   0.59390   0.71700   0.01267  Uiso   1.00
O13    O     0.55700   0.97960   0.65190   0.01267  Uiso   1.00
O14    O     0.61920   0.93210   0.76750   0.01267  Uiso   1.00
O15    O     0.69740   0.36830   0.94400   0.01267  Uiso   1.00
O16    O     0.89510   0.58810   0.34310   0.01267  Uiso   1.00
O17    O     0.64900   0.68690   0.55380   0.01267  Uiso   1.00
O18    O     0.81060   0.76800   0.65760   0.01267  Uiso   1.00
O19    O     0.31890   0.75490   0.64600   0.01267  Uiso   1.00
O20    O     0.35300   0.64960   0.53790   0.01267  Uiso   1.00
