data_FAPTUN_clean
_audit_creation_date              2014-07-02
_audit_creation_method            'Materials Studio'
_symmetry_space_group_name_H-M    'P1'
_symmetry_Int_Tables_number       1
_symmetry_cell_setting            triclinic
loop_
_symmetry_equiv_pos_as_xyz
  x,y,z
_cell_length_a                    11.0980
_cell_length_b                    14.3040
_cell_length_c                    16.9700
_cell_angle_alpha                 90.0000
_cell_angle_beta                  90.0000
_cell_angle_gamma                 90.0000
loop_
_atom_site_label
_atom_site_type_symbol
_atom_site_fract_x
_atom_site_fract_y
_atom_site_fract_z
_atom_site_U_iso_or_equiv
_atom_site_adp_type
_atom_site_occupancy
Cu1    Cu    0.00000   0.84887   0.98452   0.01267  Uiso   1.00
Cu2    Cu    0.00000   0.65113   0.48452   0.01267  Uiso   1.00
H1     H     0.20210   0.78910   0.08470   0.01267  Uiso   1.00
H2     H     0.20110   0.91810   0.88580   0.01267  Uiso   1.00
H3     H     0.40800   0.78850   0.08800   0.01267  Uiso   1.00
H4     H     0.40540   0.92290   0.88420   0.01267  Uiso   1.00
H5     H     0.79790   0.71090   0.58470   0.01267  Uiso   1.00
H6     H     0.79890   0.58190   0.38580   0.01267  Uiso   1.00
H7     H     0.59200   0.71150   0.58800   0.01267  Uiso   1.00
H8     H     0.59460   0.57710   0.38420   0.01267  Uiso   1.00
H9     H     0.79790   0.78910   0.08470   0.01267  Uiso   1.00
H10    H     0.79890   0.91810   0.88580   0.01267  Uiso   1.00
H11    H     0.59200   0.78850   0.08800   0.01267  Uiso   1.00
H12    H     0.59460   0.92290   0.88420   0.01267  Uiso   1.00
H13    H     0.20210   0.71090   0.58470   0.01267  Uiso   1.00
H14    H     0.20110   0.58190   0.38580   0.01267  Uiso   1.00
H15    H     0.40800   0.71150   0.58800   0.01267  Uiso   1.00
H16    H     0.40540   0.57710   0.38420   0.01267  Uiso   1.00
H17    H     0.00000   0.09260   0.21400   0.01267  Uiso   1.00
H18    H     0.00000   0.98860   0.43380   0.01267  Uiso   1.00
H19    H     0.00000   0.81490   0.24920   0.01267  Uiso   1.00
H20    H     0.00000   0.19440   0.32900   0.01267  Uiso   1.00
H21    H     0.00000   0.15380   0.40980   0.01267  Uiso   1.00
H22    H     0.00000   0.40740   0.71400   0.01267  Uiso   1.00
H23    H     0.00000   0.51140   0.93380   0.01267  Uiso   1.00
H24    H     0.00000   0.68510   0.74920   0.01267  Uiso   1.00
H25    H     0.00000   0.30560   0.82900   0.01267  Uiso   1.00
H26    H     0.00000   0.34620   0.90980   0.01267  Uiso   1.00
C1     C     0.24380   0.81620   0.04300   0.01267  Uiso   1.00
C2     C     0.24300   0.89140   0.92750   0.01267  Uiso   1.00
C3     C     0.36840   0.81570   0.04550   0.01267  Uiso   1.00
C4     C     0.43370   0.85510   0.98540   0.01267  Uiso   1.00
C5     C     0.36650   0.89410   0.92620   0.01267  Uiso   1.00
C6     C     0.75620   0.68380   0.54300   0.01267  Uiso   1.00
C7     C     0.75700   0.60860   0.42750   0.01267  Uiso   1.00
C8     C     0.63160   0.68430   0.54550   0.01267  Uiso   1.00
C9     C     0.56630   0.64490   0.48540   0.01267  Uiso   1.00
C10    C     0.63350   0.60590   0.42620   0.01267  Uiso   1.00
C11    C     0.75620   0.81620   0.04300   0.01267  Uiso   1.00
C12    C     0.75700   0.89140   0.92750   0.01267  Uiso   1.00
C13    C     0.63160   0.81570   0.04550   0.01267  Uiso   1.00
C14    C     0.56630   0.85510   0.98540   0.01267  Uiso   1.00
C15    C     0.63350   0.89410   0.92620   0.01267  Uiso   1.00
C16    C     0.24380   0.68380   0.54300   0.01267  Uiso   1.00
C17    C     0.24300   0.60860   0.42750   0.01267  Uiso   1.00
C18    C     0.36840   0.68430   0.54550   0.01267  Uiso   1.00
C19    C     0.43370   0.64490   0.48540   0.01267  Uiso   1.00
C20    C     0.36650   0.60590   0.42620   0.01267  Uiso   1.00
C21    C     0.00000   0.94160   0.12950   0.01267  Uiso   1.00
C22    C     0.00000   0.95140   0.21850   0.01267  Uiso   1.00
C23    C     0.00000   0.04190   0.24830   0.01267  Uiso   1.00
C24    C     0.00000   0.05670   0.32750   0.01267  Uiso   1.00
C25    C     0.00000   0.97940   0.37950   0.01267  Uiso   1.00
C26    C     0.00000   0.88910   0.34800   0.01267  Uiso   1.00
C27    C     0.00000   0.87540   0.26930   0.01267  Uiso   1.00
C28    C     0.00000   0.80940   0.40690   0.01267  Uiso   1.00
C29    C     0.00000   0.55840   0.62950   0.01267  Uiso   1.00
C30    C     0.00000   0.54860   0.71850   0.01267  Uiso   1.00
C31    C     0.00000   0.45810   0.74830   0.01267  Uiso   1.00
C32    C     0.00000   0.44330   0.82750   0.01267  Uiso   1.00
C33    C     0.00000   0.52060   0.87950   0.01267  Uiso   1.00
C34    C     0.00000   0.61090   0.84800   0.01267  Uiso   1.00
C35    C     0.00000   0.62460   0.76930   0.01267  Uiso   1.00
C36    C     0.00000   0.69060   0.90690   0.01267  Uiso   1.00
N1     N     0.18100   0.85290   0.98490   0.01267  Uiso   1.00
N2     N     0.81900   0.64710   0.48490   0.01267  Uiso   1.00
N3     N     0.81900   0.85290   0.98490   0.01267  Uiso   1.00
N4     N     0.18100   0.64710   0.48490   0.01267  Uiso   1.00
N5     N     0.00000   0.14640   0.35950   0.01267  Uiso   1.00
N6     N     0.00000   0.35360   0.85950   0.01267  Uiso   1.00
O1     O     0.00000   0.85850   0.10170   0.01267  Uiso   1.00
O2     O     0.00000   0.01210   0.08910   0.01267  Uiso   1.00
O3     O     0.00000   0.72670   0.38220   0.01267  Uiso   1.00
O4     O     0.00000   0.82650   0.47920   0.01267  Uiso   1.00
O5     O     0.00000   0.64150   0.60170   0.01267  Uiso   1.00
O6     O     0.00000   0.48790   0.58910   0.01267  Uiso   1.00
O7     O     0.00000   0.77330   0.88220   0.01267  Uiso   1.00
O8     O     0.00000   0.67350   0.97920   0.01267  Uiso   1.00
Cu3    Cu    0.00000   0.15113   0.01548   0.01267  Uiso   1.00
Cu4    Cu    0.00000   0.34887   0.51548   0.01267  Uiso   1.00
H27    H     0.20210   0.21090   0.91530   0.01267  Uiso   1.00
H28    H     0.20110   0.08190   0.11420   0.01267  Uiso   1.00
H29    H     0.40800   0.21150   0.91200   0.01267  Uiso   1.00
H30    H     0.40540   0.07710   0.11580   0.01267  Uiso   1.00
H31    H     0.79790   0.28910   0.41530   0.01267  Uiso   1.00
H32    H     0.79890   0.41810   0.61420   0.01267  Uiso   1.00
H33    H     0.59200   0.28850   0.41200   0.01267  Uiso   1.00
H34    H     0.59460   0.42290   0.61580   0.01267  Uiso   1.00
H35    H     0.79790   0.21090   0.91530   0.01267  Uiso   1.00
H36    H     0.79890   0.08190   0.11420   0.01267  Uiso   1.00
H37    H     0.59200   0.21150   0.91200   0.01267  Uiso   1.00
H38    H     0.59460   0.07710   0.11580   0.01267  Uiso   1.00
H39    H     0.20210   0.28910   0.41530   0.01267  Uiso   1.00
H40    H     0.20110   0.41810   0.61420   0.01267  Uiso   1.00
H41    H     0.40800   0.28850   0.41200   0.01267  Uiso   1.00
H42    H     0.40540   0.42290   0.61580   0.01267  Uiso   1.00
H43    H     0.00000   0.90740   0.78600   0.01267  Uiso   1.00
H44    H     0.00000   0.01140   0.56620   0.01267  Uiso   1.00
H45    H     0.00000   0.18510   0.75080   0.01267  Uiso   1.00
H46    H     0.00000   0.80560   0.67100   0.01267  Uiso   1.00
H47    H     0.00000   0.84620   0.59020   0.01267  Uiso   1.00
H48    H     0.00000   0.59260   0.28600   0.01267  Uiso   1.00
H49    H     0.00000   0.48860   0.06620   0.01267  Uiso   1.00
H50    H     0.00000   0.31490   0.25080   0.01267  Uiso   1.00
H51    H     0.00000   0.69440   0.17100   0.01267  Uiso   1.00
H52    H     0.00000   0.65380   0.09020   0.01267  Uiso   1.00
C37    C     0.24380   0.18380   0.95700   0.01267  Uiso   1.00
C38    C     0.24300   0.10860   0.07250   0.01267  Uiso   1.00
C39    C     0.36840   0.18430   0.95450   0.01267  Uiso   1.00
C40    C     0.43370   0.14490   0.01460   0.01267  Uiso   1.00
C41    C     0.36650   0.10590   0.07380   0.01267  Uiso   1.00
C42    C     0.75620   0.31620   0.45700   0.01267  Uiso   1.00
C43    C     0.75700   0.39140   0.57250   0.01267  Uiso   1.00
C44    C     0.63160   0.31570   0.45450   0.01267  Uiso   1.00
C45    C     0.56630   0.35510   0.51460   0.01267  Uiso   1.00
C46    C     0.63350   0.39410   0.57380   0.01267  Uiso   1.00
C47    C     0.75620   0.18380   0.95700   0.01267  Uiso   1.00
C48    C     0.75700   0.10860   0.07250   0.01267  Uiso   1.00
C49    C     0.63160   0.18430   0.95450   0.01267  Uiso   1.00
C50    C     0.56630   0.14490   0.01460   0.01267  Uiso   1.00
C51    C     0.63350   0.10590   0.07380   0.01267  Uiso   1.00
C52    C     0.24380   0.31620   0.45700   0.01267  Uiso   1.00
C53    C     0.24300   0.39140   0.57250   0.01267  Uiso   1.00
C54    C     0.36840   0.31570   0.45450   0.01267  Uiso   1.00
C55    C     0.43370   0.35510   0.51460   0.01267  Uiso   1.00
C56    C     0.36650   0.39410   0.57380   0.01267  Uiso   1.00
C57    C     0.00000   0.05840   0.87050   0.01267  Uiso   1.00
C58    C     0.00000   0.04860   0.78150   0.01267  Uiso   1.00
C59    C     0.00000   0.95810   0.75170   0.01267  Uiso   1.00
C60    C     0.00000   0.94330   0.67250   0.01267  Uiso   1.00
C61    C     0.00000   0.02060   0.62050   0.01267  Uiso   1.00
C62    C     0.00000   0.11090   0.65200   0.01267  Uiso   1.00
C63    C     0.00000   0.12460   0.73070   0.01267  Uiso   1.00
C64    C     0.00000   0.19060   0.59310   0.01267  Uiso   1.00
C65    C     0.00000   0.44160   0.37050   0.01267  Uiso   1.00
C66    C     0.00000   0.45140   0.28150   0.01267  Uiso   1.00
C67    C     0.00000   0.54190   0.25170   0.01267  Uiso   1.00
C68    C     0.00000   0.55670   0.17250   0.01267  Uiso   1.00
C69    C     0.00000   0.47940   0.12050   0.01267  Uiso   1.00
C70    C     0.00000   0.38910   0.15200   0.01267  Uiso   1.00
C71    C     0.00000   0.37540   0.23070   0.01267  Uiso   1.00
C72    C     0.00000   0.30940   0.09310   0.01267  Uiso   1.00
N7     N     0.18100   0.14710   0.01510   0.01267  Uiso   1.00
N8     N     0.81900   0.35290   0.51510   0.01267  Uiso   1.00
N9     N     0.81900   0.14710   0.01510   0.01267  Uiso   1.00
N10    N     0.18100   0.35290   0.51510   0.01267  Uiso   1.00
N11    N     0.00000   0.85360   0.64050   0.01267  Uiso   1.00
N12    N     0.00000   0.64640   0.14050   0.01267  Uiso   1.00
O9     O     0.00000   0.14150   0.89830   0.01267  Uiso   1.00
O10    O     0.00000   0.98790   0.91090   0.01267  Uiso   1.00
O11    O     0.00000   0.27330   0.61780   0.01267  Uiso   1.00
O12    O     0.00000   0.17350   0.52080   0.01267  Uiso   1.00
O13    O     0.00000   0.35850   0.39830   0.01267  Uiso   1.00
O14    O     0.00000   0.51210   0.41090   0.01267  Uiso   1.00
O15    O     0.00000   0.22670   0.11780   0.01267  Uiso   1.00
O16    O     0.00000   0.32650   0.02080   0.01267  Uiso   1.00
