data_FAPYEA04_clean
_audit_creation_date              2014-07-02
_audit_creation_method            'Materials Studio'
_symmetry_space_group_name_H-M    'P1'
_symmetry_Int_Tables_number       1
_symmetry_cell_setting            triclinic
loop_
_symmetry_equiv_pos_as_xyz
  x,y,z
_cell_length_a                    3.8811
_cell_length_b                    15.4005
_cell_length_c                    15.4005
_cell_angle_alpha                 89.0903
_cell_angle_beta                  82.7616
_cell_angle_gamma                 82.7611
loop_
_atom_site_label
_atom_site_type_symbol
_atom_site_fract_x
_atom_site_fract_y
_atom_site_fract_z
_atom_site_U_iso_or_equiv
_atom_site_adp_type
_atom_site_occupancy
Cu1    Cu    0.37500   0.75000   0.25000   0.01267  Uiso   1.00
Cu2    Cu    0.62500   0.25000   0.75000   0.01267  Uiso   1.00
H1     H     0.64560   0.63620   0.45060   0.01267  Uiso   1.00
H2     H     0.01950   0.33480   0.38620   0.01267  Uiso   1.00
H3     H     0.73100   0.34040   0.35360   0.01267  Uiso   1.00
H4     H     0.70300   0.29090   0.42510   0.01267  Uiso   1.00
H5     H     0.73240   0.86380   0.04940   0.01267  Uiso   1.00
H6     H     0.74050   0.16520   0.11380   0.01267  Uiso   1.00
H7     H     0.42500   0.15960   0.14640   0.01267  Uiso   1.00
H8     H     0.41900   0.20910   0.07490   0.01267  Uiso   1.00
H9     H     0.09620   0.04940   0.63620   0.01267  Uiso   1.00
H10    H     0.40570   0.11380   0.33480   0.01267  Uiso   1.00
H11    H     0.08460   0.14640   0.34040   0.01267  Uiso   1.00
H12    H     0.12810   0.07490   0.29090   0.01267  Uiso   1.00
H13    H     0.78180   0.45060   0.86380   0.01267  Uiso   1.00
H14    H     0.85430   0.38620   0.16520   0.01267  Uiso   1.00
H15    H     0.57140   0.35360   0.15960   0.01267  Uiso   1.00
H16    H     0.49390   0.42510   0.20910   0.01267  Uiso   1.00
H17    H     0.35440   0.36380   0.54940   0.01267  Uiso   1.00
H18    H     0.98050   0.66520   0.61380   0.01267  Uiso   1.00
H19    H     0.26900   0.65960   0.64640   0.01267  Uiso   1.00
H20    H     0.29700   0.70910   0.57490   0.01267  Uiso   1.00
H21    H     0.26760   0.13620   0.95060   0.01267  Uiso   1.00
H22    H     0.25950   0.83480   0.88620   0.01267  Uiso   1.00
H23    H     0.57500   0.84040   0.85360   0.01267  Uiso   1.00
H24    H     0.58100   0.79090   0.92510   0.01267  Uiso   1.00
H25    H     0.90380   0.95060   0.36380   0.01267  Uiso   1.00
H26    H     0.59430   0.88620   0.66520   0.01267  Uiso   1.00
H27    H     0.91540   0.85360   0.65960   0.01267  Uiso   1.00
H28    H     0.87190   0.92510   0.70910   0.01267  Uiso   1.00
H29    H     0.21820   0.54940   0.13620   0.01267  Uiso   1.00
H30    H     0.14570   0.61380   0.83480   0.01267  Uiso   1.00
H31    H     0.42860   0.64640   0.84040   0.01267  Uiso   1.00
H32    H     0.50610   0.57490   0.79090   0.01267  Uiso   1.00
C1     C     0.06670   0.58060   0.32120   0.01267  Uiso   1.00
C2     C     0.73790   0.50480   0.42340   0.01267  Uiso   1.00
C3     C     0.64380   0.42070   0.45410   0.01267  Uiso   1.00
C4     C     0.58590   0.58220   0.47180   0.01267  Uiso   1.00
C5     C     0.79550   0.33900   0.40360   0.01267  Uiso   1.00
C6     C     0.96850   0.91940   0.17880   0.01267  Uiso   1.00
C7     C     0.66610   0.99520   0.07660   0.01267  Uiso   1.00
C8     C     0.51860   0.07930   0.04590   0.01267  Uiso   1.00
C9     C     0.63990   0.91780   0.02820   0.01267  Uiso   1.00
C10    C     0.53810   0.16100   0.09640   0.01267  Uiso   1.00
C11    C     0.38790   0.17880   0.58060   0.01267  Uiso   1.00
C12    C     0.16130   0.07660   0.50480   0.01267  Uiso   1.00
C13    C     0.09790   0.04590   0.42070   0.01267  Uiso   1.00
C14    C     0.05770   0.02820   0.58220   0.01267  Uiso   1.00
C15    C     0.19910   0.09640   0.33900   0.01267  Uiso   1.00
C16    C     0.14730   0.32120   0.91940   0.01267  Uiso   1.00
C17    C     0.74270   0.42340   0.99520   0.01267  Uiso   1.00
C18    C     0.56450   0.45410   0.07930   0.01267  Uiso   1.00
C19    C     0.66810   0.47180   0.91780   0.01267  Uiso   1.00
C20    C     0.63450   0.40360   0.16100   0.01267  Uiso   1.00
C21    C     0.93330   0.41940   0.67880   0.01267  Uiso   1.00
C22    C     0.26210   0.49520   0.57660   0.01267  Uiso   1.00
C23    C     0.35620   0.57930   0.54590   0.01267  Uiso   1.00
C24    C     0.41410   0.41780   0.52820   0.01267  Uiso   1.00
C25    C     0.20450   0.66100   0.59640   0.01267  Uiso   1.00
C26    C     0.03150   0.08060   0.82120   0.01267  Uiso   1.00
C27    C     0.33390   0.00480   0.92340   0.01267  Uiso   1.00
C28    C     0.48140   0.92070   0.95410   0.01267  Uiso   1.00
C29    C     0.36010   0.08220   0.97180   0.01267  Uiso   1.00
C30    C     0.46190   0.83900   0.90360   0.01267  Uiso   1.00
C31    C     0.61210   0.82120   0.41940   0.01267  Uiso   1.00
C32    C     0.83870   0.92340   0.49520   0.01267  Uiso   1.00
C33    C     0.90210   0.95410   0.57930   0.01267  Uiso   1.00
C34    C     0.94230   0.97180   0.41780   0.01267  Uiso   1.00
C35    C     0.80090   0.90360   0.66100   0.01267  Uiso   1.00
C36    C     0.85270   0.67880   0.08060   0.01267  Uiso   1.00
C37    C     0.25730   0.57660   0.00480   0.01267  Uiso   1.00
C38    C     0.43550   0.54590   0.92070   0.01267  Uiso   1.00
C39    C     0.33190   0.52820   0.08220   0.01267  Uiso   1.00
C40    C     0.36550   0.59640   0.83900   0.01267  Uiso   1.00
N1     N     0.17370   0.64130   0.28790   0.01267  Uiso   1.00
N2     N     0.96620   0.50600   0.35100   0.01267  Uiso   1.00
N3     N     0.10290   0.85870   0.21210   0.01267  Uiso   1.00
N4     N     0.82320   0.99400   0.14900   0.01267  Uiso   1.00
N5     N     0.46160   0.21210   0.64130   0.01267  Uiso   1.00
N6     N     0.31720   0.14900   0.50600   0.01267  Uiso   1.00
N7     N     0.31500   0.28790   0.85870   0.01267  Uiso   1.00
N8     N     0.97220   0.35100   0.99400   0.01267  Uiso   1.00
N9     N     0.82630   0.35870   0.71210   0.01267  Uiso   1.00
N10    N     0.03380   0.49400   0.64900   0.01267  Uiso   1.00
N11    N     0.89710   0.14130   0.78790   0.01267  Uiso   1.00
N12    N     0.17680   0.00600   0.85100   0.01267  Uiso   1.00
N13    N     0.53840   0.78790   0.35870   0.01267  Uiso   1.00
N14    N     0.68280   0.85100   0.49400   0.01267  Uiso   1.00
N15    N     0.68500   0.71210   0.14130   0.01267  Uiso   1.00
N16    N     0.02780   0.64900   0.00600   0.01267  Uiso   1.00
