data_FASHUD_clean
_audit_creation_date              2014-07-02
_audit_creation_method            'Materials Studio'
_symmetry_space_group_name_H-M    'P1'
_symmetry_Int_Tables_number       1
_symmetry_cell_setting            triclinic
loop_
_symmetry_equiv_pos_as_xyz
  x,y,z
_cell_length_a                    14.6107
_cell_length_b                    14.6107
_cell_length_c                    14.6107
_cell_angle_alpha                 102.7180
_cell_angle_beta                  112.9500
_cell_angle_gamma                 112.9500
loop_
_atom_site_label
_atom_site_type_symbol
_atom_site_fract_x
_atom_site_fract_y
_atom_site_fract_z
_atom_site_U_iso_or_equiv
_atom_site_adp_type
_atom_site_occupancy
Sr1    Sr    0.26280   0.75000   0.01280   0.01267  Uiso   1.00
Sr2    Sr    0.23720   0.25000   0.48720   0.01267  Uiso   1.00
Sr3    Sr    0.26280   0.51280   0.75000   0.01267  Uiso   1.00
Sr4    Sr    0.23720   0.98720   0.25000   0.01267  Uiso   1.00
Sr5    Sr    0.73720   0.25000   0.98720   0.01267  Uiso   1.00
Sr6    Sr    0.76280   0.75000   0.51280   0.01267  Uiso   1.00
Sr7    Sr    0.73720   0.48720   0.25000   0.01267  Uiso   1.00
Sr8    Sr    0.76280   0.01280   0.75000   0.01267  Uiso   1.00
Zr1    Zr    0.75000   0.12500   0.37500   0.01267  Uiso   1.00
Zr2    Zr    0.25000   0.87500   0.62500   0.01267  Uiso   1.00
Zr3    Zr    0.25000   0.37500   0.12500   0.01267  Uiso   1.00
Zr4    Zr    0.75000   0.62500   0.87500   0.01267  Uiso   1.00
C1     C     0.48330   0.00810   0.25560   0.01267  Uiso   1.00
C2     C     0.52850   0.11040   0.35730   0.01267  Uiso   1.00
C3     C     0.01670   0.27230   0.52480   0.01267  Uiso   1.00
C4     C     0.97150   0.32880   0.58190   0.01267  Uiso   1.00
C5     C     0.24750   0.75560   0.77230   0.01267  Uiso   1.00
C6     C     0.24690   0.85730   0.82880   0.01267  Uiso   1.00
C7     C     0.25250   0.02480   0.50810   0.01267  Uiso   1.00
C8     C     0.25310   0.08190   0.61040   0.01267  Uiso   1.00
C9     C     0.25250   0.22770   0.24440   0.01267  Uiso   1.00
C10    C     0.25310   0.17120   0.14270   0.01267  Uiso   1.00
C11    C     0.24750   0.49190   0.97520   0.01267  Uiso   1.00
C12    C     0.24690   0.38960   0.91810   0.01267  Uiso   1.00
C13    C     0.48330   0.47520   0.72770   0.01267  Uiso   1.00
C14    C     0.52850   0.41810   0.67120   0.01267  Uiso   1.00
C15    C     0.01670   0.74440   0.99190   0.01267  Uiso   1.00
C16    C     0.97150   0.64270   0.88960   0.01267  Uiso   1.00
C17    C     0.51670   0.99190   0.74440   0.01267  Uiso   1.00
C18    C     0.47150   0.88960   0.64270   0.01267  Uiso   1.00
C19    C     0.98330   0.72770   0.47520   0.01267  Uiso   1.00
C20    C     0.02850   0.67120   0.41810   0.01267  Uiso   1.00
C21    C     0.75250   0.24440   0.22770   0.01267  Uiso   1.00
C22    C     0.75310   0.14270   0.17120   0.01267  Uiso   1.00
C23    C     0.74750   0.97520   0.49190   0.01267  Uiso   1.00
C24    C     0.74690   0.91810   0.38960   0.01267  Uiso   1.00
C25    C     0.74750   0.77230   0.75560   0.01267  Uiso   1.00
C26    C     0.74690   0.82880   0.85730   0.01267  Uiso   1.00
C27    C     0.75250   0.50810   0.02480   0.01267  Uiso   1.00
C28    C     0.75310   0.61040   0.08190   0.01267  Uiso   1.00
C29    C     0.51670   0.52480   0.27230   0.01267  Uiso   1.00
C30    C     0.47150   0.58190   0.32880   0.01267  Uiso   1.00
C31    C     0.98330   0.25560   0.00810   0.01267  Uiso   1.00
C32    C     0.02850   0.35730   0.11040   0.01267  Uiso   1.00
O1     O     0.37760   0.94290   0.18970   0.01267  Uiso   1.00
O2     O     0.63940   0.16950   0.41810   0.01267  Uiso   1.00
O3     O     0.56610   0.00180   0.25110   0.01267  Uiso   1.00
O4     O     0.45850   0.12810   0.37300   0.01267  Uiso   1.00
O5     O     0.41690   0.74700   0.18590   0.01267  Uiso   1.00
O6     O     0.12240   0.31210   0.56530   0.01267  Uiso   1.00
O7     O     0.86060   0.27870   0.53010   0.01267  Uiso   1.00
O8     O     0.93390   0.18500   0.43570   0.01267  Uiso   1.00
O9     O     0.04150   0.41450   0.66960   0.01267  Uiso   1.00
O10    O     0.08310   0.26900   0.33010   0.01267  Uiso   1.00
O11    O     0.24680   0.68970   0.81210   0.01267  Uiso   1.00
O12    O     0.24860   0.91810   0.77870   0.01267  Uiso   1.00
O13    O     0.24930   0.75110   0.68500   0.01267  Uiso   1.00
O14    O     0.24490   0.87300   0.91450   0.01267  Uiso   1.00
O15    O     0.43890   0.68590   0.76900   0.01267  Uiso   1.00
O16    O     0.25320   0.06530   0.44290   0.01267  Uiso   1.00
O17    O     0.25140   0.03010   0.66950   0.01267  Uiso   1.00
O18    O     0.25070   0.93570   0.50180   0.01267  Uiso   1.00
O19    O     0.25510   0.16960   0.62810   0.01267  Uiso   1.00
O20    O     0.06110   0.83010   0.24700   0.01267  Uiso   1.00
O21    O     0.25320   0.18790   0.31030   0.01267  Uiso   1.00
O22    O     0.25140   0.22130   0.08190   0.01267  Uiso   1.00
O23    O     0.25070   0.31500   0.24890   0.01267  Uiso   1.00
O24    O     0.25510   0.08550   0.12700   0.01267  Uiso   1.00
O25    O     0.06110   0.23100   0.31410   0.01267  Uiso   1.00
O26    O     0.24680   0.55710   0.93470   0.01267  Uiso   1.00
O27    O     0.24860   0.33050   0.96990   0.01267  Uiso   1.00
O28    O     0.24930   0.49820   0.06430   0.01267  Uiso   1.00
O29    O     0.24490   0.37190   0.83040   0.01267  Uiso   1.00
O30    O     0.43890   0.75300   0.16990   0.01267  Uiso   1.00
O31    O     0.37760   0.43470   0.68790   0.01267  Uiso   1.00
O32    O     0.63940   0.46990   0.72130   0.01267  Uiso   1.00
O33    O     0.56610   0.56430   0.81500   0.01267  Uiso   1.00
O34    O     0.45850   0.33040   0.58550   0.01267  Uiso   1.00
O35    O     0.41690   0.66990   0.73100   0.01267  Uiso   1.00
O36    O     0.12240   0.81030   0.05710   0.01267  Uiso   1.00
O37    O     0.86060   0.58190   0.83050   0.01267  Uiso   1.00
O38    O     0.93390   0.74890   0.99820   0.01267  Uiso   1.00
O39    O     0.04150   0.62700   0.87190   0.01267  Uiso   1.00
O40    O     0.08310   0.81410   0.25300   0.01267  Uiso   1.00
O41    O     0.62240   0.05710   0.81030   0.01267  Uiso   1.00
O42    O     0.36060   0.83050   0.58190   0.01267  Uiso   1.00
O43    O     0.43390   0.99820   0.74890   0.01267  Uiso   1.00
O44    O     0.54150   0.87190   0.62700   0.01267  Uiso   1.00
O45    O     0.58310   0.25300   0.81410   0.01267  Uiso   1.00
O46    O     0.87760   0.68790   0.43470   0.01267  Uiso   1.00
O47    O     0.13940   0.72130   0.46990   0.01267  Uiso   1.00
O48    O     0.06610   0.81500   0.56430   0.01267  Uiso   1.00
O49    O     0.95850   0.58550   0.33040   0.01267  Uiso   1.00
O50    O     0.91690   0.73100   0.66990   0.01267  Uiso   1.00
O51    O     0.75320   0.31030   0.18790   0.01267  Uiso   1.00
O52    O     0.75140   0.08190   0.22130   0.01267  Uiso   1.00
O53    O     0.75070   0.24890   0.31500   0.01267  Uiso   1.00
O54    O     0.75510   0.12700   0.08550   0.01267  Uiso   1.00
O55    O     0.56110   0.31410   0.23100   0.01267  Uiso   1.00
O56    O     0.74680   0.93470   0.55710   0.01267  Uiso   1.00
O57    O     0.74860   0.96990   0.33050   0.01267  Uiso   1.00
O58    O     0.74930   0.06430   0.49820   0.01267  Uiso   1.00
O59    O     0.74490   0.83040   0.37190   0.01267  Uiso   1.00
O60    O     0.93890   0.16990   0.75300   0.01267  Uiso   1.00
O61    O     0.74680   0.81210   0.68970   0.01267  Uiso   1.00
O62    O     0.74860   0.77870   0.91810   0.01267  Uiso   1.00
O63    O     0.74930   0.68500   0.75110   0.01267  Uiso   1.00
O64    O     0.74490   0.91450   0.87300   0.01267  Uiso   1.00
O65    O     0.93890   0.76900   0.68590   0.01267  Uiso   1.00
O66    O     0.75320   0.44290   0.06530   0.01267  Uiso   1.00
O67    O     0.75140   0.66950   0.03010   0.01267  Uiso   1.00
O68    O     0.75070   0.50180   0.93570   0.01267  Uiso   1.00
O69    O     0.75510   0.62810   0.16960   0.01267  Uiso   1.00
O70    O     0.56110   0.24700   0.83010   0.01267  Uiso   1.00
O71    O     0.62240   0.56530   0.31210   0.01267  Uiso   1.00
O72    O     0.36060   0.53010   0.27870   0.01267  Uiso   1.00
O73    O     0.43390   0.43570   0.18500   0.01267  Uiso   1.00
O74    O     0.54150   0.66960   0.41450   0.01267  Uiso   1.00
O75    O     0.58310   0.33010   0.26900   0.01267  Uiso   1.00
O76    O     0.87760   0.18970   0.94290   0.01267  Uiso   1.00
O77    O     0.13940   0.41810   0.16950   0.01267  Uiso   1.00
O78    O     0.06610   0.25110   0.00180   0.01267  Uiso   1.00
O79    O     0.95850   0.37300   0.12810   0.01267  Uiso   1.00
O80    O     0.91690   0.18590   0.74700   0.01267  Uiso   1.00
