data_FATBAE_clean
_audit_creation_date              2014-07-02
_audit_creation_method            'Materials Studio'
_symmetry_space_group_name_H-M    'P1'
_symmetry_Int_Tables_number       1
_symmetry_cell_setting            triclinic
loop_
_symmetry_equiv_pos_as_xyz
  x,y,z
_cell_length_a                    9.1780
_cell_length_b                    9.1970
_cell_length_c                    15.3194
_cell_angle_alpha                 99.9088
_cell_angle_beta                  99.8572
_cell_angle_gamma                 115.3170
loop_
_atom_site_label
_atom_site_type_symbol
_atom_site_fract_x
_atom_site_fract_y
_atom_site_fract_z
_atom_site_U_iso_or_equiv
_atom_site_adp_type
_atom_site_occupancy
Ba1    Ba    0.47150   0.22150   0.44300   0.01267  Uiso   1.00
Ba2    Ba    0.52850   0.77850   0.55700   0.01267  Uiso   1.00
Ba3    Ba    0.27050   0.52050   0.04100   0.01267  Uiso   1.00
Ba4    Ba    0.72950   0.47950   0.95900   0.01267  Uiso   1.00
Zr1    Zr    0.88470   0.13470   0.26940   0.01267  Uiso   1.00
Zr2    Zr    0.11530   0.86530   0.73060   0.01267  Uiso   1.00
C1     C     0.90800   0.32580   0.12560   0.01267  Uiso   1.00
C2     C     0.74130   0.29450   0.14540   0.01267  Uiso   1.00
C3     C     0.22960   0.40180   0.38660   0.01267  Uiso   1.00
C4     C     0.12300   0.49240   0.39080   0.01267  Uiso   1.00
C5     C     0.71760   0.79980   0.12560   0.01267  Uiso   1.00
C6     C     0.90410   0.85090   0.14540   0.01267  Uiso   1.00
C7     C     0.65700   0.98480   0.38660   0.01267  Uiso   1.00
C8     C     0.76780   0.89840   0.39080   0.01267  Uiso   1.00
C9     C     0.09200   0.67420   0.87440   0.01267  Uiso   1.00
C10    C     0.25870   0.70550   0.85460   0.01267  Uiso   1.00
C11    C     0.77040   0.59820   0.61340   0.01267  Uiso   1.00
C12    C     0.87700   0.50760   0.60920   0.01267  Uiso   1.00
C13    C     0.28240   0.20020   0.87440   0.01267  Uiso   1.00
C14    C     0.09590   0.14910   0.85460   0.01267  Uiso   1.00
C15    C     0.34300   0.01520   0.61340   0.01267  Uiso   1.00
C16    C     0.23220   0.10160   0.60920   0.01267  Uiso   1.00
O1     O     0.98720   0.26720   0.17160   0.01267  Uiso   1.00
O2     O     0.95570   0.40350   0.06940   0.01267  Uiso   1.00
O3     O     0.65750   0.35080   0.10720   0.01267  Uiso   1.00
O4     O     0.70230   0.20500   0.20060   0.01267  Uiso   1.00
O5     O     0.14400   0.24330   0.34780   0.01267  Uiso   1.00
O6     O     0.38050   0.47590   0.41860   0.01267  Uiso   1.00
O7     O     0.96780   0.39520   0.34960   0.01267  Uiso   1.00
O8     O     0.18950   0.64100   0.43020   0.01267  Uiso   1.00
O9     O     0.46200   0.50100   0.20800   0.01267  Uiso   1.00
O10    O     0.38230   0.36530   0.15260   0.01267  Uiso   1.00
O11    O     0.68440   0.90440   0.17160   0.01267  Uiso   1.00
O12    O     0.61370   0.66590   0.06940   0.01267  Uiso   1.00
O13    O     0.94970   0.75640   0.10720   0.01267  Uiso   1.00
O14    O     0.99830   0.99560   0.20060   0.01267  Uiso   1.00
O15    O     0.70380   0.10450   0.34780   0.01267  Uiso   1.00
O16    O     0.53810   0.94270   0.41860   0.01267  Uiso   1.00
O17    O     0.88180   0.95440   0.34960   0.01267  Uiso   1.00
O18    O     0.74070   0.78920   0.43020   0.01267  Uiso   1.00
O19    O     0.24600   0.70700   0.20800   0.01267  Uiso   1.00
O20    O     0.27030   0.78730   0.15260   0.01267  Uiso   1.00
O21    O     0.01280   0.73280   0.82840   0.01267  Uiso   1.00
O22    O     0.04430   0.59650   0.93060   0.01267  Uiso   1.00
O23    O     0.34250   0.64920   0.89280   0.01267  Uiso   1.00
O24    O     0.29770   0.79500   0.79940   0.01267  Uiso   1.00
O25    O     0.85600   0.75670   0.65220   0.01267  Uiso   1.00
O26    O     0.61950   0.52410   0.58140   0.01267  Uiso   1.00
O27    O     0.03220   0.60480   0.65040   0.01267  Uiso   1.00
O28    O     0.81050   0.35900   0.56980   0.01267  Uiso   1.00
O29    O     0.53800   0.49900   0.79200   0.01267  Uiso   1.00
O30    O     0.61770   0.63470   0.84740   0.01267  Uiso   1.00
O31    O     0.31560   0.09560   0.82840   0.01267  Uiso   1.00
O32    O     0.38630   0.33410   0.93060   0.01267  Uiso   1.00
O33    O     0.05030   0.24360   0.89280   0.01267  Uiso   1.00
O34    O     0.00170   0.00440   0.79940   0.01267  Uiso   1.00
O35    O     0.29620   0.89550   0.65220   0.01267  Uiso   1.00
O36    O     0.46190   0.05730   0.58140   0.01267  Uiso   1.00
O37    O     0.11820   0.04560   0.65040   0.01267  Uiso   1.00
O38    O     0.25930   0.21080   0.56980   0.01267  Uiso   1.00
O39    O     0.75400   0.29300   0.79200   0.01267  Uiso   1.00
O40    O     0.72970   0.21270   0.84740   0.01267  Uiso   1.00
