data_FAYKOH_clean
_audit_creation_date              2014-07-02
_audit_creation_method            'Materials Studio'
_symmetry_space_group_name_H-M    'P1'
_symmetry_Int_Tables_number       1
_symmetry_cell_setting            triclinic
loop_
_symmetry_equiv_pos_as_xyz
  x,y,z
_cell_length_a                    16.5388
_cell_length_b                    17.6725
_cell_length_c                    17.6725
_cell_angle_alpha                 77.3525
_cell_angle_beta                  62.1004
_cell_angle_gamma                 62.1004
loop_
_atom_site_label
_atom_site_type_symbol
_atom_site_fract_x
_atom_site_fract_y
_atom_site_fract_z
_atom_site_U_iso_or_equiv
_atom_site_adp_type
_atom_site_occupancy
In1    In    0.58739   0.01853   0.60310   0.01267  Uiso   1.00
In2    In    0.20902   0.98147   0.39690   0.01267  Uiso   1.00
In3    In    0.80951   0.60310   0.98147   0.01267  Uiso   1.00
In4    In    0.39408   0.39690   0.01853   0.01267  Uiso   1.00
H1     H     0.02790   0.04260   0.08060   0.01267  Uiso   1.00
H2     H     0.08390   0.94250   0.06990   0.01267  Uiso   1.00
H3     H     0.07610   0.97610   0.19130   0.01267  Uiso   1.00
H4     H     0.92060   0.97120   0.44640   0.01267  Uiso   1.00
H5     H     0.79380   0.99580   0.28980   0.01267  Uiso   1.00
H6     H     0.78430   0.60330   0.47890   0.01267  Uiso   1.00
H7     H     0.67440   0.62170   0.55030   0.01267  Uiso   1.00
H8     H     0.70370   0.72380   0.57160   0.01267  Uiso   1.00
H9     H     0.71150   0.78620   0.77320   0.01267  Uiso   1.00
H10    H     0.82670   0.53490   0.71950   0.01267  Uiso   1.00
H11    H     0.15110   0.95740   0.91940   0.01267  Uiso   1.00
H12    H     0.09630   0.05750   0.93010   0.01267  Uiso   1.00
H13    H     0.24350   0.02390   0.80870   0.01267  Uiso   1.00
H14    H     0.33820   0.02880   0.55360   0.01267  Uiso   1.00
H15    H     0.07940   0.00420   0.71020   0.01267  Uiso   1.00
H16    H     0.86650   0.39670   0.52110   0.01267  Uiso   1.00
H17    H     0.84640   0.37830   0.44970   0.01267  Uiso   1.00
H18    H     0.99910   0.27620   0.42840   0.01267  Uiso   1.00
H19    H     0.27090   0.21380   0.22680   0.01267  Uiso   1.00
H20    H     0.08110   0.46510   0.28050   0.01267  Uiso   1.00
H21    H     0.89150   0.08060   0.95740   0.01267  Uiso   1.00
H22    H     0.84620   0.06990   0.05750   0.01267  Uiso   1.00
H23    H     0.73260   0.19130   0.02390   0.01267  Uiso   1.00
H24    H     0.63300   0.44640   0.02880   0.01267  Uiso   1.00
H25    H     0.91640   0.28980   0.00420   0.01267  Uiso   1.00
H26    H     0.73680   0.47890   0.39670   0.01267  Uiso   1.00
H27    H     0.77530   0.55030   0.37830   0.01267  Uiso   1.00
H28    H     0.72470   0.57160   0.27620   0.01267  Uiso   1.00
H29    H     0.51530   0.77320   0.21380   0.01267  Uiso   1.00
H30    H     0.45380   0.71950   0.46510   0.01267  Uiso   1.00
H31    H     0.92950   0.91940   0.04260   0.01267  Uiso   1.00
H32    H     0.97360   0.93010   0.94250   0.01267  Uiso   1.00
H33    H     0.94780   0.80870   0.97610   0.01267  Uiso   1.00
H34    H     0.10820   0.55360   0.97120   0.01267  Uiso   1.00
H35    H     0.21040   0.71020   0.99580   0.01267  Uiso   1.00
H36    H     0.61240   0.52110   0.60330   0.01267  Uiso   1.00
H37    H     0.70390   0.44970   0.62170   0.01267  Uiso   1.00
H38    H     0.57250   0.42840   0.72380   0.01267  Uiso   1.00
H39    H     0.50230   0.22680   0.78620   0.01267  Uiso   1.00
H40    H     0.63840   0.28050   0.53490   0.01267  Uiso   1.00
C1     C     0.02111   0.99219   0.07649   0.01267  Uiso   1.00
C2     C     0.94042   0.97801   0.22685   0.01267  Uiso   1.00
C3     C     0.01957   0.97387   0.23863   0.01267  Uiso   1.00
C4     C     0.01559   0.96621   0.32381   0.01267  Uiso   1.00
C5     C     0.92650   0.97158   0.39142   0.01267  Uiso   1.00
C6     C     0.84038   0.97772   0.38232   0.01267  Uiso   1.00
C7     C     0.84943   0.98545   0.29849   0.01267  Uiso   1.00
C8     C     0.09611   0.96466   0.33652   0.01267  Uiso   1.00
C9     C     0.75210   0.99002   0.46096   0.01267  Uiso   1.00
C10    C     0.74370   0.57888   0.52752   0.01267  Uiso   1.00
C11    C     0.76310   0.61946   0.64214   0.01267  Uiso   1.00
C12    C     0.71823   0.70845   0.61909   0.01267  Uiso   1.00
C13    C     0.69849   0.76771   0.66911   0.01267  Uiso   1.00
C14    C     0.72380   0.74420   0.74040   0.01267  Uiso   1.00
C15    C     0.76809   0.65635   0.76065   0.01267  Uiso   1.00
C16    C     0.79256   0.59254   0.70954   0.01267  Uiso   1.00
C17    C     0.64748   0.85896   0.65368   0.01267  Uiso   1.00
C18    C     0.79630   0.63380   0.83740   0.01267  Uiso   1.00
C19    C     0.08979   0.00781   0.92351   0.01267  Uiso   1.00
C20    C     0.14528   0.02199   0.77315   0.01267  Uiso   1.00
C21    C     0.23207   0.02613   0.76137   0.01267  Uiso   1.00
C22    C     0.30561   0.03379   0.67619   0.01267  Uiso   1.00
C23    C     0.28950   0.02842   0.60858   0.01267  Uiso   1.00
C24    C     0.20042   0.02228   0.61768   0.01267  Uiso   1.00
C25    C     0.13337   0.01455   0.70151   0.01267  Uiso   1.00
C26    C     0.39729   0.03534   0.66348   0.01267  Uiso   1.00
C27    C     0.20308   0.00998   0.53904   0.01267  Uiso   1.00
C28    C     0.85010   0.42112   0.47248   0.01267  Uiso   1.00
C29    C     0.02470   0.38054   0.35786   0.01267  Uiso   1.00
C30    C     0.04577   0.29155   0.38091   0.01267  Uiso   1.00
C31    C     0.13531   0.23229   0.33089   0.01267  Uiso   1.00
C32    C     0.20840   0.25580   0.25960   0.01267  Uiso   1.00
C33    C     0.18509   0.34365   0.23935   0.01267  Uiso   1.00
C34    C     0.09464   0.40746   0.29046   0.01267  Uiso   1.00
C35    C     0.16012   0.14104   0.34632   0.01267  Uiso   1.00
C36    C     0.26750   0.36620   0.16260   0.01267  Uiso   1.00
C37    C     0.90240   0.07649   0.00781   0.01267  Uiso   1.00
C38    C     0.83273   0.22685   0.02199   0.01267  Uiso   1.00
C39    C     0.74180   0.23863   0.02613   0.01267  Uiso   1.00
C40    C     0.66060   0.32381   0.03379   0.01267  Uiso   1.00
C41    C     0.68208   0.39142   0.02842   0.01267  Uiso   1.00
C42    C     0.77730   0.38232   0.02228   0.01267  Uiso   1.00
C43    C     0.85208   0.29849   0.01455   0.01267  Uiso   1.00
C44    C     0.56737   0.33652   0.03534   0.01267  Uiso   1.00
C45    C     0.78694   0.46096   0.00998   0.01267  Uiso   1.00
C46    C     0.72878   0.52752   0.42112   0.01267  Uiso   1.00
C47    C     0.59476   0.64214   0.38054   0.01267  Uiso   1.00
C48    C     0.66268   0.61909   0.29155   0.01267  Uiso   1.00
C49    C     0.63240   0.66911   0.23229   0.01267  Uiso   1.00
C50    C     0.53580   0.74040   0.25580   0.01267  Uiso   1.00
C51    C     0.47126   0.76065   0.34365   0.01267  Uiso   1.00
C52    C     0.49790   0.70954   0.40746   0.01267  Uiso   1.00
C53    C     0.69884   0.65368   0.14104   0.01267  Uiso   1.00
C54    C     0.36630   0.83740   0.36620   0.01267  Uiso   1.00
C55    C     0.98670   0.92351   0.99219   0.01267  Uiso   1.00
C56    C     0.08157   0.77315   0.97801   0.01267  Uiso   1.00
C57    C     0.00656   0.76137   0.97387   0.01267  Uiso   1.00
C58    C     0.01820   0.67619   0.96621   0.01267  Uiso   1.00
C59    C     0.10192   0.60858   0.97158   0.01267  Uiso   1.00
C60    C     0.18190   0.61768   0.97772   0.01267  Uiso   1.00
C61    C     0.16512   0.70151   0.98545   0.01267  Uiso   1.00
C62    C     0.93923   0.66348   0.96466   0.01267  Uiso   1.00
C63    C     0.25788   0.53904   0.99002   0.01267  Uiso   1.00
C64    C     0.67742   0.47248   0.57888   0.01267  Uiso   1.00
C65    C     0.61744   0.35786   0.61946   0.01267  Uiso   1.00
C66    C     0.57332   0.38091   0.70845   0.01267  Uiso   1.00
C67    C     0.53380   0.33089   0.76771   0.01267  Uiso   1.00
C68    C     0.53200   0.25960   0.74420   0.01267  Uiso   1.00
C69    C     0.57556   0.23935   0.65635   0.01267  Uiso   1.00
C70    C     0.61490   0.29046   0.59254   0.01267  Uiso   1.00
C71    C     0.49356   0.34632   0.85896   0.01267  Uiso   1.00
C72    C     0.56990   0.16260   0.63380   0.01267  Uiso   1.00
C73    C     0.00000   0.00000   0.00000   0.01267  Uiso   1.00
C74    C     0.75000   0.50000   0.50000   0.01267  Uiso   1.00
O1     O     0.93998   0.98378   0.15220   0.01267  Uiso   1.00
O2     O     0.66994   0.01111   0.45247   0.01267  Uiso   1.00
O3     O     0.75229   0.98462   0.53178   0.01267  Uiso   1.00
O4     O     0.09291   0.94633   0.41171   0.01267  Uiso   1.00
O5     O     0.16962   0.97857   0.27241   0.01267  Uiso   1.00
O6     O     0.78190   0.55210   0.59350   0.01267  Uiso   1.00
O7     O     0.62299   0.88202   0.59384   0.01267  Uiso   1.00
O8     O     0.64110   0.91363   0.69367   0.01267  Uiso   1.00
O9     O     0.74789   0.68537   0.89303   0.01267  Uiso   1.00
O10    O     0.86249   0.55865   0.83519   0.01267  Uiso   1.00
O11    O     0.07596   0.01622   0.84780   0.01267  Uiso   1.00
O12    O     0.13352   0.98889   0.54753   0.01267  Uiso   1.00
O13    O     0.26869   0.01538   0.46822   0.01267  Uiso   1.00
O14    O     0.45095   0.05367   0.58829   0.01267  Uiso   1.00
O15    O     0.42060   0.02143   0.72759   0.01267  Uiso   1.00
O16    O     0.92750   0.44790   0.40650   0.01267  Uiso   1.00
O17    O     0.09885   0.11798   0.40616   0.01267  Uiso   1.00
O18    O     0.24840   0.08637   0.30633   0.01267  Uiso   1.00
O19    O     0.32629   0.31463   0.10697   0.01267  Uiso   1.00
O20    O     0.25633   0.44135   0.16481   0.01267  Uiso   1.00
O21    O     0.90782   0.15220   0.01622   0.01267  Uiso   1.00
O22    O     0.87759   0.45247   0.98889   0.01267  Uiso   1.00
O23    O     0.71593   0.53178   0.01538   0.01267  Uiso   1.00
O24    O     0.49538   0.41171   0.05367   0.01267  Uiso   1.00
O25    O     0.55797   0.27241   0.02143   0.01267  Uiso   1.00
O26    O     0.62460   0.59350   0.44790   0.01267  Uiso   1.00
O27    O     0.78317   0.59384   0.11798   0.01267  Uiso   1.00
O28    O     0.66523   0.69367   0.08637   0.01267  Uiso   1.00
O29    O     0.35908   0.89303   0.31463   0.01267  Uiso   1.00
O30    O     0.30232   0.83519   0.44135   0.01267  Uiso   1.00
O31    O     0.07624   0.84780   0.98378   0.01267  Uiso   1.00
O32    O     0.31895   0.54753   0.01111   0.01267  Uiso   1.00
O33    O     0.26309   0.46822   0.98462   0.01267  Uiso   1.00
O34    O     0.96076   0.58829   0.94633   0.01267  Uiso   1.00
O35    O     0.85181   0.72759   0.97857   0.01267  Uiso   1.00
O36    O     0.66600   0.40650   0.55210   0.01267  Uiso   1.00
O37    O     0.49499   0.40616   0.88202   0.01267  Uiso   1.00
O38    O     0.44527   0.30633   0.91363   0.01267  Uiso   1.00
O39    O     0.56674   0.10697   0.68537   0.01267  Uiso   1.00
O40    O     0.57886   0.16481   0.55865   0.01267  Uiso   1.00
