data_FESBIQ_clean
_audit_creation_date              2014-07-02
_audit_creation_method            'Materials Studio'
_symmetry_space_group_name_H-M    'P1'
_symmetry_Int_Tables_number       1
_symmetry_cell_setting            triclinic
loop_
_symmetry_equiv_pos_as_xyz
  x,y,z
_cell_length_a                    14.7870
_cell_length_b                    15.5710
_cell_length_c                    16.4240
_cell_angle_alpha                 92.3790
_cell_angle_beta                  109.6680
_cell_angle_gamma                 110.9550
loop_
_atom_site_label
_atom_site_type_symbol
_atom_site_fract_x
_atom_site_fract_y
_atom_site_fract_z
_atom_site_U_iso_or_equiv
_atom_site_adp_type
_atom_site_occupancy
Mn1    Mn    0.16576   0.74699   0.67698   0.01267  Uiso   1.00
Mn2    Mn    0.33679   0.33018   0.25269   0.01267  Uiso   1.00
Mn3    Mn    0.83424   0.25301   0.32302   0.01267  Uiso   1.00
Mn4    Mn    0.66321   0.66982   0.74731   0.01267  Uiso   1.00
H1     H     0.16550   0.60760   0.52350   0.01267  Uiso   1.00
H2     H     0.06280   0.53060   0.38290   0.01267  Uiso   1.00
H3     H     0.89910   0.53090   0.32000   0.01267  Uiso   1.00
H4     H     0.84370   0.61310   0.39770   0.01267  Uiso   1.00
H5     H     0.96880   0.97670   0.69530   0.01267  Uiso   1.00
H6     H     0.04500   0.08780   0.81990   0.01267  Uiso   1.00
H7     H     0.12950   0.90770   0.95990   0.01267  Uiso   1.00
H8     H     0.05540   0.79690   0.83490   0.01267  Uiso   1.00
H9     H     0.28420   0.30170   0.05610   0.01267  Uiso   1.00
H10    H     0.19890   0.19180   0.93010   0.01267  Uiso   1.00
H11    H     0.10720   0.99680   0.07100   0.01267  Uiso   1.00
H12    H     0.19050   0.11610   0.19120   0.01267  Uiso   1.00
H13    H     0.33740   0.48570   0.39090   0.01267  Uiso   1.00
H14    H     0.44700   0.62580   0.48120   0.01267  Uiso   1.00
H15    H     0.61820   0.69210   0.48890   0.01267  Uiso   1.00
H16    H     0.67060   0.61620   0.40240   0.01267  Uiso   1.00
H17    H     0.44200   0.16610   0.19570   0.01267  Uiso   1.00
H18    H     0.37000   0.03690   0.08590   0.01267  Uiso   1.00
H19    H     0.46690   0.19930   0.92580   0.01267  Uiso   1.00
H20    H     0.54310   0.32900   0.03700   0.01267  Uiso   1.00
H21    H     0.22850   0.95800   0.71580   0.01267  Uiso   1.00
H22    H     0.31290   0.08590   0.82280   0.01267  Uiso   1.00
H23    H     0.38970   0.92380   0.99490   0.01267  Uiso   1.00
H24    H     0.30690   0.80250   0.88130   0.01267  Uiso   1.00
H25    H     0.35880   0.94190   0.53410   0.01267  Uiso   1.00
H26    H     0.63610   0.95610   0.53820   0.01267  Uiso   1.00
H27    H     0.47950   0.76510   0.64980   0.01267  Uiso   1.00
H28    H     0.14590   0.47350   0.05970   0.01267  Uiso   1.00
H29    H     0.87130   0.47080   0.05080   0.01267  Uiso   1.00
H30    H     0.03400   0.37230   0.24290   0.01267  Uiso   1.00
H31    H     0.67870   0.40930   0.19830   0.01267  Uiso   1.00
H32    H     0.83280   0.81470   0.60810   0.01267  Uiso   1.00
H33    H     0.83450   0.39240   0.47650   0.01267  Uiso   1.00
H34    H     0.93720   0.46940   0.61710   0.01267  Uiso   1.00
H35    H     0.10090   0.46910   0.68000   0.01267  Uiso   1.00
H36    H     0.15630   0.38690   0.60230   0.01267  Uiso   1.00
H37    H     0.03120   0.02330   0.30470   0.01267  Uiso   1.00
H38    H     0.95500   0.91220   0.18010   0.01267  Uiso   1.00
H39    H     0.87050   0.09230   0.04010   0.01267  Uiso   1.00
H40    H     0.94460   0.20310   0.16510   0.01267  Uiso   1.00
H41    H     0.71580   0.69830   0.94390   0.01267  Uiso   1.00
H42    H     0.80110   0.80820   0.06990   0.01267  Uiso   1.00
H43    H     0.89280   0.00320   0.92900   0.01267  Uiso   1.00
H44    H     0.80950   0.88390   0.80880   0.01267  Uiso   1.00
H45    H     0.66260   0.51430   0.60910   0.01267  Uiso   1.00
H46    H     0.55300   0.37420   0.51880   0.01267  Uiso   1.00
H47    H     0.38180   0.30790   0.51110   0.01267  Uiso   1.00
H48    H     0.32940   0.38380   0.59760   0.01267  Uiso   1.00
H49    H     0.55800   0.83390   0.80430   0.01267  Uiso   1.00
H50    H     0.63000   0.96310   0.91410   0.01267  Uiso   1.00
H51    H     0.53310   0.80070   0.07420   0.01267  Uiso   1.00
H52    H     0.45690   0.67100   0.96300   0.01267  Uiso   1.00
H53    H     0.77150   0.04200   0.28420   0.01267  Uiso   1.00
H54    H     0.68710   0.91410   0.17720   0.01267  Uiso   1.00
H55    H     0.61030   0.07620   0.00510   0.01267  Uiso   1.00
H56    H     0.69310   0.19750   0.11870   0.01267  Uiso   1.00
H57    H     0.64120   0.05810   0.46590   0.01267  Uiso   1.00
H58    H     0.36390   0.04390   0.46180   0.01267  Uiso   1.00
H59    H     0.52050   0.23490   0.35020   0.01267  Uiso   1.00
H60    H     0.85410   0.52650   0.94030   0.01267  Uiso   1.00
H61    H     0.12870   0.52920   0.94920   0.01267  Uiso   1.00
H62    H     0.96600   0.62770   0.75710   0.01267  Uiso   1.00
H63    H     0.32130   0.59070   0.80170   0.01267  Uiso   1.00
H64    H     0.16720   0.18530   0.39190   0.01267  Uiso   1.00
C1     C     0.10000   0.60980   0.49870   0.01267  Uiso   1.00
C2     C     0.03870   0.56260   0.41390   0.01267  Uiso   1.00
C3     C     0.94260   0.56350   0.37680   0.01267  Uiso   1.00
C4     C     0.90990   0.61240   0.42270   0.01267  Uiso   1.00
C5     C     0.97540   0.66080   0.50650   0.01267  Uiso   1.00
C6     C     0.94930   0.71520   0.56010   0.01267  Uiso   1.00
C7     C     0.96910   0.81230   0.66950   0.01267  Uiso   1.00
C8     C     0.00940   0.87770   0.74910   0.01267  Uiso   1.00
C9     C     0.00360   0.96290   0.74840   0.01267  Uiso   1.00
C10    C     0.04710   0.02910   0.82340   0.01267  Uiso   1.00
C11    C     0.09460   0.00890   0.90520   0.01267  Uiso   1.00
C12    C     0.09740   0.92240   0.90630   0.01267  Uiso   1.00
C13    C     0.05450   0.85600   0.83130   0.01267  Uiso   1.00
C14    C     0.24840   0.24010   0.05960   0.01267  Uiso   1.00
C15    C     0.19770   0.17380   0.98320   0.01267  Uiso   1.00
C16    C     0.14520   0.08100   0.98510   0.01267  Uiso   1.00
C17    C     0.14220   0.05790   0.06570   0.01267  Uiso   1.00
C18    C     0.19460   0.13170   0.13810   0.01267  Uiso   1.00
C19    C     0.40620   0.51040   0.39440   0.01267  Uiso   1.00
C20    C     0.47080   0.59560   0.44820   0.01267  Uiso   1.00
C21    C     0.57180   0.63510   0.45200   0.01267  Uiso   1.00
C22    C     0.60290   0.58990   0.40140   0.01267  Uiso   1.00
C23    C     0.53440   0.50560   0.34890   0.01267  Uiso   1.00
C24    C     0.55980   0.45100   0.29130   0.01267  Uiso   1.00
C25    C     0.53870   0.34390   0.19360   0.01267  Uiso   1.00
C26    C     0.49510   0.25970   0.12600   0.01267  Uiso   1.00
C27    C     0.44660   0.17320   0.14110   0.01267  Uiso   1.00
C28    C     0.40410   0.09560   0.07520   0.01267  Uiso   1.00
C29    C     0.41120   0.10350   0.99490   0.01267  Uiso   1.00
C30    C     0.46230   0.19230   0.98040   0.01267  Uiso   1.00
C31    C     0.50640   0.27030   0.04620   0.01267  Uiso   1.00
C32    C     0.26090   0.95000   0.77260   0.01267  Uiso   1.00
C33    C     0.31130   0.02830   0.83720   0.01267  Uiso   1.00
C34    C     0.35970   0.02230   0.92360   0.01267  Uiso   1.00
C35    C     0.35720   0.93290   0.93870   0.01267  Uiso   1.00
C36    C     0.30580   0.85990   0.86860   0.01267  Uiso   1.00
C37    C     0.31420   0.80650   0.62370   0.01267  Uiso   1.00
C38    C     0.40460   0.84710   0.59530   0.01267  Uiso   1.00
C39    C     0.41210   0.92010   0.54930   0.01267  Uiso   1.00
C40    C     0.49760   0.96190   0.52520   0.01267  Uiso   1.00
C41    C     0.57690   0.92820   0.55150   0.01267  Uiso   1.00
C42    C     0.57010   0.85640   0.59540   0.01267  Uiso   1.00
C43    C     0.48360   0.81420   0.61900   0.01267  Uiso   1.00
C44    C     0.65690   0.81990   0.62310   0.01267  Uiso   1.00
C45    C     0.19390   0.39000   0.19750   0.01267  Uiso   1.00
C46    C     0.10340   0.41850   0.15680   0.01267  Uiso   1.00
C47    C     0.09360   0.45970   0.08240   0.01267  Uiso   1.00
C48    C     0.00780   0.48040   0.04190   0.01267  Uiso   1.00
C49    C     0.93020   0.45800   0.07740   0.01267  Uiso   1.00
C50    C     0.93950   0.41690   0.15190   0.01267  Uiso   1.00
C51    C     0.02660   0.39830   0.19230   0.01267  Uiso   1.00
C52    C     0.85480   0.39310   0.18830   0.01267  Uiso   1.00
C53    C     0.90000   0.39020   0.50130   0.01267  Uiso   1.00
C54    C     0.96130   0.43740   0.58610   0.01267  Uiso   1.00
C55    C     0.05740   0.43650   0.62320   0.01267  Uiso   1.00
C56    C     0.09010   0.38760   0.57730   0.01267  Uiso   1.00
C57    C     0.02460   0.33920   0.49350   0.01267  Uiso   1.00
C58    C     0.05070   0.28480   0.43990   0.01267  Uiso   1.00
C59    C     0.03090   0.18770   0.33050   0.01267  Uiso   1.00
C60    C     0.99060   0.12230   0.25090   0.01267  Uiso   1.00
C61    C     0.99640   0.03710   0.25160   0.01267  Uiso   1.00
C62    C     0.95290   0.97090   0.17660   0.01267  Uiso   1.00
C63    C     0.90540   0.99110   0.09480   0.01267  Uiso   1.00
C64    C     0.90260   0.07760   0.09370   0.01267  Uiso   1.00
C65    C     0.94550   0.14400   0.16870   0.01267  Uiso   1.00
C66    C     0.75160   0.75990   0.94040   0.01267  Uiso   1.00
C67    C     0.80230   0.82620   0.01680   0.01267  Uiso   1.00
C68    C     0.85480   0.91900   0.01490   0.01267  Uiso   1.00
C69    C     0.85780   0.94210   0.93430   0.01267  Uiso   1.00
C70    C     0.80540   0.86830   0.86190   0.01267  Uiso   1.00
C71    C     0.59380   0.48960   0.60560   0.01267  Uiso   1.00
C72    C     0.52920   0.40440   0.55180   0.01267  Uiso   1.00
C73    C     0.42820   0.36490   0.54800   0.01267  Uiso   1.00
C74    C     0.39710   0.41010   0.59860   0.01267  Uiso   1.00
C75    C     0.46560   0.49440   0.65110   0.01267  Uiso   1.00
C76    C     0.44020   0.54900   0.70870   0.01267  Uiso   1.00
C77    C     0.46130   0.65610   0.80640   0.01267  Uiso   1.00
C78    C     0.50490   0.74030   0.87400   0.01267  Uiso   1.00
C79    C     0.55340   0.82680   0.85890   0.01267  Uiso   1.00
C80    C     0.59590   0.90440   0.92480   0.01267  Uiso   1.00
C81    C     0.58880   0.89650   0.00510   0.01267  Uiso   1.00
C82    C     0.53770   0.80770   0.01960   0.01267  Uiso   1.00
C83    C     0.49360   0.72970   0.95380   0.01267  Uiso   1.00
C84    C     0.73910   0.05000   0.22740   0.01267  Uiso   1.00
C85    C     0.68870   0.97170   0.16280   0.01267  Uiso   1.00
C86    C     0.64030   0.97770   0.07640   0.01267  Uiso   1.00
C87    C     0.64280   0.06710   0.06130   0.01267  Uiso   1.00
C88    C     0.69420   0.14010   0.13140   0.01267  Uiso   1.00
C89    C     0.68580   0.19350   0.37630   0.01267  Uiso   1.00
C90    C     0.59540   0.15290   0.40470   0.01267  Uiso   1.00
C91    C     0.58790   0.07990   0.45070   0.01267  Uiso   1.00
C92    C     0.50240   0.03810   0.47480   0.01267  Uiso   1.00
C93    C     0.42310   0.07180   0.44850   0.01267  Uiso   1.00
C94    C     0.42990   0.14360   0.40460   0.01267  Uiso   1.00
C95    C     0.51640   0.18580   0.38100   0.01267  Uiso   1.00
C96    C     0.34310   0.18010   0.37690   0.01267  Uiso   1.00
C97    C     0.80610   0.61000   0.80250   0.01267  Uiso   1.00
C98    C     0.89660   0.58150   0.84320   0.01267  Uiso   1.00
C99    C     0.90640   0.54030   0.91760   0.01267  Uiso   1.00
C100   C     0.99220   0.51960   0.95810   0.01267  Uiso   1.00
C101   C     0.06980   0.54200   0.92260   0.01267  Uiso   1.00
C102   C     0.06050   0.58310   0.84810   0.01267  Uiso   1.00
C103   C     0.97340   0.60170   0.80770   0.01267  Uiso   1.00
C104   C     0.14520   0.60690   0.81170   0.01267  Uiso   1.00
N1     N     0.01980   0.76560   0.64300   0.01267  Uiso   1.00
N2     N     0.24920   0.22070   0.14030   0.01267  Uiso   1.00
N3     N     0.25340   0.86040   0.78310   0.01267  Uiso   1.00
N4     N     0.48740   0.36850   0.23810   0.01267  Uiso   1.00
N5     N     0.07270   0.65940   0.54900   0.01267  Uiso   1.00
N6     N     0.43390   0.45880   0.34560   0.01267  Uiso   1.00
N7     N     0.65120   0.47940   0.28220   0.01267  Uiso   1.00
N8     N     0.63300   0.41010   0.21940   0.01267  Uiso   1.00
N9     N     0.87700   0.79170   0.60560   0.01267  Uiso   1.00
N10    N     0.86020   0.72940   0.53480   0.01267  Uiso   1.00
N11    N     0.98020   0.23440   0.35700   0.01267  Uiso   1.00
N12    N     0.75080   0.77930   0.85970   0.01267  Uiso   1.00
N13    N     0.74660   0.13960   0.21690   0.01267  Uiso   1.00
N14    N     0.51260   0.63150   0.76190   0.01267  Uiso   1.00
N15    N     0.92730   0.34060   0.45100   0.01267  Uiso   1.00
N16    N     0.56610   0.54120   0.65440   0.01267  Uiso   1.00
N17    N     0.34880   0.52060   0.71780   0.01267  Uiso   1.00
N18    N     0.36700   0.58990   0.78060   0.01267  Uiso   1.00
N19    N     0.12300   0.20830   0.39440   0.01267  Uiso   1.00
N20    N     0.13980   0.27060   0.46520   0.01267  Uiso   1.00
O1     O     0.24470   0.84050   0.60400   0.01267  Uiso   1.00
O2     O     0.31030   0.74260   0.66700   0.01267  Uiso   1.00
O3     O     0.64490   0.75390   0.66210   0.01267  Uiso   1.00
O4     O     0.73400   0.85940   0.60200   0.01267  Uiso   1.00
O5     O     0.26720   0.41340   0.16790   0.01267  Uiso   1.00
O6     O     0.19440   0.34270   0.25660   0.01267  Uiso   1.00
O7     O     0.77870   0.41510   0.15330   0.01267  Uiso   1.00
O8     O     0.86430   0.35060   0.25170   0.01267  Uiso   1.00
O9     O     0.75530   0.15950   0.39600   0.01267  Uiso   1.00
O10    O     0.68970   0.25740   0.33300   0.01267  Uiso   1.00
O11    O     0.35510   0.24610   0.33790   0.01267  Uiso   1.00
O12    O     0.26600   0.14060   0.39800   0.01267  Uiso   1.00
O13    O     0.73280   0.58660   0.83210   0.01267  Uiso   1.00
O14    O     0.80560   0.65730   0.74340   0.01267  Uiso   1.00
O15    O     0.22130   0.58490   0.84670   0.01267  Uiso   1.00
O16    O     0.13570   0.64940   0.74830   0.01267  Uiso   1.00
