data_FEVNEA_charged
_audit_creation_date              2014-07-02
_audit_creation_method            'Materials Studio'
_symmetry_space_group_name_H-M    'P1'
_symmetry_Int_Tables_number       1
_symmetry_cell_setting            triclinic
loop_
_symmetry_equiv_pos_as_xyz
  x,y,z
_cell_length_a                    17.5661
_cell_length_b                    23.4327
_cell_length_c                    27.0910
_cell_angle_alpha                 78.0860
_cell_angle_beta                  80.5090
_cell_angle_gamma                 74.0460
loop_
_atom_site_label
_atom_site_type_symbol
_atom_site_fract_x
_atom_site_fract_y
_atom_site_fract_z
_atom_site_U_iso_or_equiv
_atom_site_adp_type
_atom_site_occupancy
Sm1    Sm    0.92122   0.63185   0.77554   0.01267  Uiso   1.00
Sm2    Sm    0.07878   0.36815   0.22446   0.01267  Uiso   1.00
H1     H     0.86530   0.52350   0.78760   0.01267  Uiso   1.00
H2     H     0.80530   0.56370   0.82380   0.01267  Uiso   1.00
H3     H     0.94520   0.51620   0.65910   0.01267  Uiso   1.00
H4     H     0.96030   0.41620   0.65630   0.01267  Uiso   1.00
H5     H     0.03430   0.37120   0.79500   0.01267  Uiso   1.00
H6     H     0.92850   0.33480   0.66990   0.01267  Uiso   1.00
H7     H     0.93470   0.23370   0.67200   0.01267  Uiso   1.00
H8     H     0.06830   0.18360   0.78320   0.01267  Uiso   1.00
H9     H     0.07160   0.28190   0.78080   0.01267  Uiso   1.00
H10    H     0.99560   0.13460   0.69000   0.01267  Uiso   1.00
H11    H     0.05900   0.11140   0.73070   0.01267  Uiso   1.00
H12    H     0.15230   0.52260   0.79770   0.01267  Uiso   1.00
H13    H     0.25990   0.52040   0.83410   0.01267  Uiso   1.00
H14    H     0.12260   0.59560   0.94670   0.01267  Uiso   1.00
H15    H     0.01330   0.60780   0.90280   0.01267  Uiso   1.00
H16    H     0.21730   0.56280   0.98940   0.01267  Uiso   1.00
H17    H     0.32960   0.56530   0.02620   0.01267  Uiso   1.00
H18    H     0.46800   0.51130   0.90330   0.01267  Uiso   1.00
H19    H     0.35710   0.52830   0.86160   0.01267  Uiso   1.00
H20    H     0.46540   0.55410   0.02100   0.01267  Uiso   1.00
H21    H     0.51830   0.55190   0.96670   0.01267  Uiso   1.00
H22    H     0.01050   0.74000   0.86540   0.01267  Uiso   1.00
H23    H     0.97620   0.86280   0.70830   0.01267  Uiso   1.00
H24    H     0.98930   0.75880   0.72050   0.01267  Uiso   1.00
H25    H     0.03590   0.92650   0.83540   0.01267  Uiso   1.00
H26    H     0.01590   0.03180   0.82460   0.01267  Uiso   1.00
H27    H     0.89060   0.05930   0.71130   0.01267  Uiso   1.00
H28    H     0.91310   0.95600   0.71560   0.01267  Uiso   1.00
H29    H     0.94870   0.12730   0.79670   0.01267  Uiso   1.00
H30    H     0.88970   0.14060   0.75400   0.01267  Uiso   1.00
H31    H     0.87150   0.74190   0.66770   0.01267  Uiso   1.00
H32    H     0.79880   0.80770   0.60550   0.01267  Uiso   1.00
H33    H     0.66340   0.88840   0.71340   0.01267  Uiso   1.00
H34    H     0.73480   0.81730   0.77470   0.01267  Uiso   1.00
H35    H     0.74870   0.89630   0.55990   0.01267  Uiso   1.00
H36    H     0.66840   0.96470   0.50230   0.01267  Uiso   1.00
H37    H     0.48510   0.96560   0.59950   0.01267  Uiso   1.00
H38    H     0.55930   0.90050   0.65890   0.01267  Uiso   1.00
H39    H     0.55380   0.03620   0.48510   0.01267  Uiso   1.00
H40    H     0.48210   0.04480   0.53010   0.01267  Uiso   1.00
H41    H     0.01380   0.64430   0.60820   0.01267  Uiso   1.00
H42    H     0.13460   0.59920   0.57460   0.01267  Uiso   1.00
H43    H     0.24020   0.62190   0.69060   0.01267  Uiso   1.00
H44    H     0.11270   0.65880   0.73100   0.01267  Uiso   1.00
H45    H     0.24530   0.61250   0.52820   0.01267  Uiso   1.00
H46    H     0.36000   0.56180   0.48620   0.01267  Uiso   1.00
H47    H     0.34180   0.55160   0.66090   0.01267  Uiso   1.00
H48    H     0.89090   0.69110   0.94080   0.01267  Uiso   1.00
H49    H     0.78980   0.75990   0.98140   0.01267  Uiso   1.00
H50    H     0.64800   0.77500   0.87310   0.01267  Uiso   1.00
H51    H     0.74900   0.70610   0.83260   0.01267  Uiso   1.00
H52    H     0.59200   0.85560   0.89510   0.01267  Uiso   1.00
H53    H     0.50760   0.94250   0.92560   0.01267  Uiso   1.00
H54    H     0.59320   0.88070   0.05850   0.01267  Uiso   1.00
H55    H     0.68530   0.80240   0.02760   0.01267  Uiso   1.00
H56    H     0.50960   0.97850   0.04650   0.01267  Uiso   1.00
H57    H     0.44230   0.96540   0.02140   0.01267  Uiso   1.00
H58    H     0.80020   0.77990   0.93550   0.01267  Uiso   1.00
H59    H     0.13470   0.47650   0.21240   0.01267  Uiso   1.00
H60    H     0.19470   0.43630   0.17620   0.01267  Uiso   1.00
H61    H     0.05480   0.48380   0.34090   0.01267  Uiso   1.00
H62    H     0.03970   0.58380   0.34370   0.01267  Uiso   1.00
H63    H     0.96570   0.62880   0.20500   0.01267  Uiso   1.00
H64    H     0.07150   0.66520   0.33010   0.01267  Uiso   1.00
H65    H     0.06530   0.76630   0.32800   0.01267  Uiso   1.00
H66    H     0.93170   0.81640   0.21680   0.01267  Uiso   1.00
H67    H     0.92840   0.71810   0.21920   0.01267  Uiso   1.00
H68    H     0.00440   0.86540   0.31000   0.01267  Uiso   1.00
H69    H     0.94100   0.88860   0.26930   0.01267  Uiso   1.00
H70    H     0.84770   0.47740   0.20230   0.01267  Uiso   1.00
H71    H     0.74010   0.47960   0.16590   0.01267  Uiso   1.00
H72    H     0.87740   0.40440   0.05330   0.01267  Uiso   1.00
H73    H     0.98670   0.39220   0.09720   0.01267  Uiso   1.00
H74    H     0.78270   0.43720   0.01060   0.01267  Uiso   1.00
H75    H     0.67040   0.43470   0.97380   0.01267  Uiso   1.00
H76    H     0.53200   0.48870   0.09670   0.01267  Uiso   1.00
H77    H     0.64290   0.47170   0.13840   0.01267  Uiso   1.00
H78    H     0.53460   0.44590   0.97900   0.01267  Uiso   1.00
H79    H     0.48170   0.44810   0.03330   0.01267  Uiso   1.00
H80    H     0.98950   0.26000   0.13460   0.01267  Uiso   1.00
H81    H     0.02380   0.13720   0.29170   0.01267  Uiso   1.00
H82    H     0.01070   0.24120   0.27950   0.01267  Uiso   1.00
H83    H     0.96410   0.07350   0.16460   0.01267  Uiso   1.00
H84    H     0.98410   0.96820   0.17540   0.01267  Uiso   1.00
H85    H     0.10940   0.94070   0.28870   0.01267  Uiso   1.00
H86    H     0.08690   0.04400   0.28440   0.01267  Uiso   1.00
H87    H     0.05130   0.87270   0.20330   0.01267  Uiso   1.00
H88    H     0.11030   0.85940   0.24600   0.01267  Uiso   1.00
H89    H     0.12850   0.25810   0.33230   0.01267  Uiso   1.00
H90    H     0.20120   0.19230   0.39450   0.01267  Uiso   1.00
H91    H     0.33660   0.11160   0.28660   0.01267  Uiso   1.00
H92    H     0.26520   0.18270   0.22530   0.01267  Uiso   1.00
H93    H     0.25130   0.10370   0.44010   0.01267  Uiso   1.00
H94    H     0.33160   0.03530   0.49770   0.01267  Uiso   1.00
H95    H     0.51490   0.03440   0.40050   0.01267  Uiso   1.00
H96    H     0.44070   0.09950   0.34110   0.01267  Uiso   1.00
H97    H     0.44620   0.96380   0.51490   0.01267  Uiso   1.00
H98    H     0.51790   0.95520   0.46990   0.01267  Uiso   1.00
H99    H     0.98620   0.35570   0.39180   0.01267  Uiso   1.00
H100   H     0.86540   0.40080   0.42540   0.01267  Uiso   1.00
H101   H     0.75980   0.37810   0.30940   0.01267  Uiso   1.00
H102   H     0.88730   0.34120   0.26900   0.01267  Uiso   1.00
H103   H     0.75470   0.38750   0.47180   0.01267  Uiso   1.00
H104   H     0.64000   0.43820   0.51380   0.01267  Uiso   1.00
H105   H     0.65820   0.44840   0.33910   0.01267  Uiso   1.00
H106   H     0.10910   0.30890   0.05920   0.01267  Uiso   1.00
H107   H     0.21020   0.24010   0.01860   0.01267  Uiso   1.00
H108   H     0.35200   0.22500   0.12690   0.01267  Uiso   1.00
H109   H     0.25100   0.29390   0.16740   0.01267  Uiso   1.00
H110   H     0.40800   0.14440   0.10490   0.01267  Uiso   1.00
H111   H     0.49240   0.05750   0.07440   0.01267  Uiso   1.00
H112   H     0.40680   0.11930   0.94150   0.01267  Uiso   1.00
H113   H     0.31470   0.19760   0.97240   0.01267  Uiso   1.00
H114   H     0.49040   0.02150   0.95350   0.01267  Uiso   1.00
H115   H     0.55770   0.03460   0.97860   0.01267  Uiso   1.00
H116   H     0.19980   0.22010   0.06450   0.01267  Uiso   1.00
C1     C     0.96610   0.48600   0.68610   0.01267  Uiso   1.00
C2     C     0.97330   0.42690   0.68530   0.01267  Uiso   1.00
C3     C     0.99900   0.38190   0.72510   0.01267  Uiso   1.00
C4     C     0.01790   0.39990   0.76600   0.01267  Uiso   1.00
C5     C     0.01280   0.46030   0.76430   0.01267  Uiso   1.00
C6     C     0.00060   0.31960   0.72450   0.01267  Uiso   1.00
C7     C     0.95940   0.30450   0.69290   0.01267  Uiso   1.00
C8     C     0.96320   0.24380   0.69450   0.01267  Uiso   1.00
C9     C     0.04170   0.21460   0.75870   0.01267  Uiso   1.00
C10    C     0.04230   0.27310   0.75810   0.01267  Uiso   1.00
C11    C     0.00580   0.13790   0.72400   0.01267  Uiso   1.00
C12    C     0.14540   0.53870   0.82810   0.01267  Uiso   1.00
C13    C     0.20840   0.53610   0.85040   0.01267  Uiso   1.00
C14    C     0.20270   0.55510   0.89590   0.01267  Uiso   1.00
C15    C     0.13000   0.58110   0.91560   0.01267  Uiso   1.00
C16    C     0.06490   0.58690   0.89010   0.01267  Uiso   1.00
C17    C     0.27390   0.54850   0.92240   0.01267  Uiso   1.00
C18    C     0.26840   0.55590   0.97020   0.01267  Uiso   1.00
C19    C     0.33510   0.55400   0.99390   0.01267  Uiso   1.00
C20    C     0.41630   0.52470   0.92030   0.01267  Uiso   1.00
C21    C     0.35070   0.53300   0.89620   0.01267  Uiso   1.00
C22    C     0.48090   0.53270   0.99160   0.01267  Uiso   1.00
C23    C     0.00400   0.76550   0.83340   0.01267  Uiso   1.00
C24    C     0.99890   0.82690   0.82730   0.01267  Uiso   1.00
C25    C     0.98560   0.86410   0.78180   0.01267  Uiso   1.00
C26    C     0.98300   0.83880   0.74090   0.01267  Uiso   1.00
C27    C     0.99060   0.77670   0.74870   0.01267  Uiso   1.00
C28    C     0.97390   0.93070   0.77600   0.01267  Uiso   1.00
C29    C     0.00680   0.95260   0.80930   0.01267  Uiso   1.00
C30    C     0.99470   0.01520   0.80240   0.01267  Uiso   1.00
C31    C     0.92210   0.03210   0.73570   0.01267  Uiso   1.00
C32    C     0.93380   0.97070   0.73940   0.01267  Uiso   1.00
C33    C     0.94350   0.11860   0.76340   0.01267  Uiso   1.00
C34    C     0.82490   0.77060   0.67810   0.01267  Uiso   1.00
C35    C     0.78180   0.81020   0.64030   0.01267  Uiso   1.00
C36    C     0.71580   0.85200   0.65380   0.01267  Uiso   1.00
C37    C     0.70390   0.85570   0.70260   0.01267  Uiso   1.00
C38    C     0.74750   0.81410   0.73970   0.01267  Uiso   1.00
C39    C     0.66420   0.89430   0.61750   0.01267  Uiso   1.00
C40    C     0.69370   0.91150   0.57040   0.01267  Uiso   1.00
C41    C     0.64500   0.95210   0.53550   0.01267  Uiso   1.00
C42    C     0.54110   0.95260   0.59110   0.01267  Uiso   1.00
C43    C     0.58530   0.91390   0.62670   0.01267  Uiso   1.00
C44    C     0.52090   0.01460   0.51170   0.01267  Uiso   1.00
C45    C     0.67230   0.66320   0.71500   0.01267  Uiso   1.00
C46    C     0.05900   0.63700   0.62600   0.01267  Uiso   1.00
C47    C     0.12990   0.61350   0.60560   0.01267  Uiso   1.00
C48    C     0.20100   0.60780   0.62700   0.01267  Uiso   1.00
C49    C     0.19400   0.62520   0.67510   0.01267  Uiso   1.00
C50    C     0.11900   0.64700   0.69880   0.01267  Uiso   1.00
C51    C     0.27870   0.58440   0.59870   0.01267  Uiso   1.00
C52    C     0.28820   0.58930   0.54680   0.01267  Uiso   1.00
C53    C     0.35710   0.56180   0.52160   0.01267  Uiso   1.00
C54    C     0.42010   0.53450   0.59800   0.01267  Uiso   1.00
C55    C     0.34660   0.55600   0.62500   0.01267  Uiso   1.00
C56    C     0.49700   0.50600   0.51490   0.01267  Uiso   1.00
C57    C     0.84160   0.70810   0.92710   0.01267  Uiso   1.00
C58    C     0.78160   0.74900   0.95110   0.01267  Uiso   1.00
C59    C     0.70940   0.77390   0.93100   0.01267  Uiso   1.00
C60    C     0.69730   0.75800   0.88690   0.01267  Uiso   1.00
C61    C     0.75730   0.71700   0.86280   0.01267  Uiso   1.00
C62    C     0.64850   0.82120   0.95690   0.01267  Uiso   1.00
C63    C     0.59530   0.86190   0.92820   0.01267  Uiso   1.00
C64    C     0.54430   0.91370   0.94610   0.01267  Uiso   1.00
C65    C     0.59650   0.87790   0.02370   0.01267  Uiso   1.00
C66    C     0.64880   0.82990   0.00630   0.01267  Uiso   1.00
C67    C     0.49300   0.97600   0.01470   0.01267  Uiso   1.00
C68    C     0.03390   0.51400   0.31390   0.01267  Uiso   1.00
C69    C     0.02670   0.57310   0.31470   0.01267  Uiso   1.00
C70    C     0.00100   0.61810   0.27490   0.01267  Uiso   1.00
C71    C     0.98210   0.60010   0.23400   0.01267  Uiso   1.00
C72    C     0.98720   0.53970   0.23570   0.01267  Uiso   1.00
C73    C     0.99940   0.68040   0.27550   0.01267  Uiso   1.00
C74    C     0.04060   0.69550   0.30710   0.01267  Uiso   1.00
C75    C     0.03680   0.75620   0.30550   0.01267  Uiso   1.00
C76    C     0.95830   0.78540   0.24130   0.01267  Uiso   1.00
C77    C     0.95770   0.72690   0.24190   0.01267  Uiso   1.00
C78    C     0.99420   0.86210   0.27600   0.01267  Uiso   1.00
C79    C     0.85460   0.46130   0.17190   0.01267  Uiso   1.00
C80    C     0.79160   0.46390   0.14960   0.01267  Uiso   1.00
C81    C     0.79730   0.44490   0.10410   0.01267  Uiso   1.00
C82    C     0.87000   0.41890   0.08440   0.01267  Uiso   1.00
C83    C     0.93510   0.41310   0.10990   0.01267  Uiso   1.00
C84    C     0.72610   0.45150   0.07760   0.01267  Uiso   1.00
C85    C     0.73160   0.44410   0.02980   0.01267  Uiso   1.00
C86    C     0.66490   0.44600   0.00610   0.01267  Uiso   1.00
C87    C     0.58370   0.47530   0.07970   0.01267  Uiso   1.00
C88    C     0.64930   0.46700   0.10380   0.01267  Uiso   1.00
C89    C     0.51910   0.46730   0.00840   0.01267  Uiso   1.00
C90    C     0.99600   0.23450   0.16660   0.01267  Uiso   1.00
C91    C     0.00110   0.17310   0.17270   0.01267  Uiso   1.00
C92    C     0.01440   0.13590   0.21820   0.01267  Uiso   1.00
C93    C     0.01700   0.16120   0.25910   0.01267  Uiso   1.00
C94    C     0.00940   0.22330   0.25130   0.01267  Uiso   1.00
C95    C     0.02610   0.06930   0.22400   0.01267  Uiso   1.00
C96    C     0.99320   0.04740   0.19070   0.01267  Uiso   1.00
C97    C     0.00530   0.98480   0.19760   0.01267  Uiso   1.00
C98    C     0.07790   0.96790   0.26430   0.01267  Uiso   1.00
C99    C     0.06620   0.02930   0.26060   0.01267  Uiso   1.00
C100   C     0.05650   0.88140   0.23660   0.01267  Uiso   1.00
C101   C     0.17510   0.22940   0.32190   0.01267  Uiso   1.00
C102   C     0.21820   0.18980   0.35970   0.01267  Uiso   1.00
C103   C     0.28420   0.14800   0.34620   0.01267  Uiso   1.00
C104   C     0.29610   0.14430   0.29740   0.01267  Uiso   1.00
C105   C     0.25250   0.18590   0.26030   0.01267  Uiso   1.00
C106   C     0.33580   0.10570   0.38250   0.01267  Uiso   1.00
C107   C     0.30630   0.08850   0.42960   0.01267  Uiso   1.00
C108   C     0.35500   0.04790   0.46450   0.01267  Uiso   1.00
C109   C     0.45890   0.04740   0.40890   0.01267  Uiso   1.00
C110   C     0.41470   0.08610   0.37330   0.01267  Uiso   1.00
C111   C     0.47910   0.98540   0.48830   0.01267  Uiso   1.00
C112   C     0.32770   0.33680   0.28500   0.01267  Uiso   1.00
C113   C     0.94100   0.36300   0.37400   0.01267  Uiso   1.00
C114   C     0.87010   0.38650   0.39440   0.01267  Uiso   1.00
C115   C     0.79900   0.39220   0.37300   0.01267  Uiso   1.00
C116   C     0.80600   0.37480   0.32490   0.01267  Uiso   1.00
C117   C     0.88100   0.35300   0.30120   0.01267  Uiso   1.00
C118   C     0.72130   0.41560   0.40130   0.01267  Uiso   1.00
C119   C     0.71180   0.41070   0.45320   0.01267  Uiso   1.00
C120   C     0.64290   0.43820   0.47840   0.01267  Uiso   1.00
C121   C     0.57990   0.46550   0.40200   0.01267  Uiso   1.00
C122   C     0.65340   0.44400   0.37500   0.01267  Uiso   1.00
C123   C     0.50300   0.49400   0.48510   0.01267  Uiso   1.00
C124   C     0.15840   0.29190   0.07290   0.01267  Uiso   1.00
C125   C     0.21840   0.25100   0.04890   0.01267  Uiso   1.00
C126   C     0.29060   0.22610   0.06900   0.01267  Uiso   1.00
C127   C     0.30270   0.24200   0.11310   0.01267  Uiso   1.00
C128   C     0.24270   0.28300   0.13720   0.01267  Uiso   1.00
C129   C     0.35150   0.17880   0.04310   0.01267  Uiso   1.00
C130   C     0.40470   0.13810   0.07180   0.01267  Uiso   1.00
C131   C     0.45570   0.08630   0.05390   0.01267  Uiso   1.00
C132   C     0.40350   0.12210   0.97630   0.01267  Uiso   1.00
C133   C     0.35120   0.17010   0.99370   0.01267  Uiso   1.00
C134   C     0.50700   0.02400   0.98530   0.01267  Uiso   1.00
S1     S     0.75850   0.61180   0.71554   0.01267  Uiso   1.00
S2     S     0.24150   0.38820   0.28446   0.01267  Uiso   1.00
N1     N     0.98900   0.50090   0.72580   0.01267  Uiso   1.00
N2     N     0.00410   0.20030   0.72560   0.01267  Uiso   1.00
N3     N     0.07440   0.56310   0.84760   0.01267  Uiso   1.00
N4     N     0.40810   0.53510   0.96760   0.01267  Uiso   1.00
N5     N     0.99920   0.74350   0.79150   0.01267  Uiso   1.00
N6     N     0.95500   0.05200   0.76620   0.01267  Uiso   1.00
N7     N     0.80590   0.77080   0.72450   0.01267  Uiso   1.00
N8     N     0.57190   0.97210   0.54690   0.01267  Uiso   1.00
N9     N     0.04900   0.65190   0.67380   0.01267  Uiso   1.00
N10    N     0.42170   0.53450   0.54630   0.01267  Uiso   1.00
N11    N     0.82940   0.69210   0.88290   0.01267  Uiso   1.00
N12    N     0.55030   0.92050   0.99460   0.01267  Uiso   1.00
N13    N     0.01100   0.49910   0.27420   0.01267  Uiso   1.00
N14    N     0.99590   0.79970   0.27440   0.01267  Uiso   1.00
N15    N     0.92560   0.43690   0.15240   0.01267  Uiso   1.00
N16    N     0.59190   0.46490   0.03240   0.01267  Uiso   1.00
N17    N     0.00080   0.25650   0.20850   0.01267  Uiso   1.00
N18    N     0.04500   0.94800   0.23380   0.01267  Uiso   1.00
N19    N     0.19410   0.22920   0.27550   0.01267  Uiso   1.00
N20    N     0.42810   0.02790   0.45310   0.01267  Uiso   1.00
N21    N     0.95100   0.34810   0.32620   0.01267  Uiso   1.00
N22    N     0.57830   0.46550   0.45370   0.01267  Uiso   1.00
N23    N     0.17060   0.30790   0.11710   0.01267  Uiso   1.00
N24    N     0.44970   0.07950   0.00540   0.01267  Uiso   1.00
O1     O     0.86060   0.54810   0.81270   0.01267  Uiso   1.00
O2     O     0.98240   0.55950   0.72390   0.01267  Uiso   1.00
O3     O     0.01160   0.56470   0.82610   0.01267  Uiso   1.00
O4     O     0.00240   0.68460   0.79970   0.01267  Uiso   1.00
O5     O     0.84730   0.73440   0.76000   0.01267  Uiso   1.00
O6     O     0.81400   0.63860   0.72650   0.01267  Uiso   1.00
O7     O     0.74750   0.55920   0.75220   0.01267  Uiso   1.00
O8     O     0.76740   0.60210   0.66070   0.01267  Uiso   1.00
O9     O     0.88120   0.65800   0.85980   0.01267  Uiso   1.00
O10    O     0.98300   0.67480   0.69540   0.01267  Uiso   1.00
O11    O     0.13940   0.45190   0.18730   0.01267  Uiso   1.00
O12    O     0.01760   0.44050   0.27610   0.01267  Uiso   1.00
O13    O     0.98840   0.43530   0.17390   0.01267  Uiso   1.00
O14    O     0.99760   0.31540   0.20030   0.01267  Uiso   1.00
O15    O     0.15270   0.26560   0.24000   0.01267  Uiso   1.00
O16    O     0.18600   0.36140   0.27350   0.01267  Uiso   1.00
O17    O     0.25250   0.44080   0.24780   0.01267  Uiso   1.00
O18    O     0.23260   0.39790   0.33930   0.01267  Uiso   1.00
O19    O     0.11880   0.34200   0.14020   0.01267  Uiso   1.00
O20    O     0.01700   0.32520   0.30460   0.01267  Uiso   1.00
F1     F     0.60740   0.64480   0.70640   0.01267  Uiso   1.00
F2     F     0.64640   0.67480   0.76170   0.01267  Uiso   1.00
F3     F     0.66430   0.71820   0.68950   0.01267  Uiso   1.00
F4     F     0.39260   0.35520   0.29360   0.01267  Uiso   1.00
F5     F     0.35360   0.32520   0.23830   0.01267  Uiso   1.00
F6     F     0.33570   0.28180   0.31050   0.01267  Uiso   1.00
C135   C     0.00960   0.56970   0.06360   0.01267  Uiso   1.00
S3     S     0.08320   0.59530   0.08317   0.01267  Uiso   1.00
O21    O     0.03630   0.63970   0.11700   0.01267  Uiso   1.00
O22    O     0.13230   0.54220   0.10780   0.01267  Uiso   1.00
O23    O     0.12000   0.62290   0.03770   0.01267  Uiso   1.00
F7     F     0.03290   0.53240   0.03900   0.01267  Uiso   1.00
F8     F     0.95830   0.61610   0.03890   0.01267  Uiso   1.00
F9     F     0.95770   0.55410   0.10290   0.01267  Uiso   1.00
C136   C     0.51660   0.44200   0.23970   0.01267  Uiso   1.00
S4     S     0.58170   0.48990   0.24649   0.01267  Uiso   1.00
O24    O     0.57660   0.53450   0.19840   0.01267  Uiso   1.00
O25    O     0.55050   0.51270   0.29250   0.01267  Uiso   1.00
O26    O     0.65550   0.45020   0.24760   0.01267  Uiso   1.00
F10    F     0.43870   0.48320   0.24530   0.01267  Uiso   1.00
F11    F     0.53020   0.42820   0.19990   0.01267  Uiso   1.00
F12    F     0.52270   0.39800   0.28340   0.01267  Uiso   1.00
C137   C     0.99680   0.16950   0.42120   0.01267  Uiso   1.00
S5     S     0.05880   0.10100   0.42250   0.01267  Uiso   1.00
O27    O     0.11510   0.10310   0.45610   0.01267  Uiso   1.00
O28    O     0.02300   0.05440   0.44790   0.01267  Uiso   1.00
O29    O     0.08910   0.10150   0.37100   0.01267  Uiso   1.00
F13    F     0.95690   0.17740   0.46730   0.01267  Uiso   1.00
F14    F     0.94470   0.18830   0.38980   0.01267  Uiso   1.00
F15    F     0.02490   0.21290   0.40550   0.01267  Uiso   1.00
C138   C     0.79890   0.17280   0.09900   0.01267  Uiso   1.00
S6     S     0.87150   0.11650   0.06780   0.01267  Uiso   1.00
O30    O     0.86040   0.06160   0.10290   0.01267  Uiso   1.00
O31    O     0.94120   0.13250   0.07870   0.01267  Uiso   1.00
O32    O     0.85100   0.14050   0.02160   0.01267  Uiso   1.00
F16    F     0.73410   0.17730   0.09290   0.01267  Uiso   1.00
F17    F     0.81480   0.22690   0.08310   0.01267  Uiso   1.00
F18    F     0.81680   0.16160   0.14610   0.01267  Uiso   1.00
C139   C     0.05700   0.69720   0.46630   0.01267  Uiso   1.00
S7     S     0.11740   0.64210   0.43290   0.01267  Uiso   1.00
O33    O     0.05560   0.61250   0.41450   0.01267  Uiso   1.00
O34    O     0.16030   0.67640   0.38910   0.01267  Uiso   1.00
O35    O     0.14630   0.59310   0.47190   0.01267  Uiso   1.00
F19    F     0.12400   0.70640   0.48200   0.01267  Uiso   1.00
F20    F     0.01120   0.67360   0.50410   0.01267  Uiso   1.00
F21    F     0.00640   0.73160   0.43740   0.01267  Uiso   1.00
C140   C     0.78310   0.71240   0.15770   0.01267  Uiso   1.00
S8     S     0.80460   0.77400   0.11380   0.01267  Uiso   1.00
O36    O     0.81600   0.75810   0.06210   0.01267  Uiso   1.00
O37    O     0.72900   0.81690   0.12170   0.01267  Uiso   1.00
O38    O     0.86700   0.78100   0.13580   0.01267  Uiso   1.00
F22    F     0.76200   0.72370   0.19810   0.01267  Uiso   1.00
F23    F     0.72420   0.69760   0.14110   0.01267  Uiso   1.00
F24    F     0.83880   0.66380   0.14980   0.01267  Uiso   1.00
C141   C     0.45160   0.85940   0.75730   0.01267  Uiso   1.00
S9     S     0.50110   0.87150   0.80380   0.01267  Uiso   1.00
O39    O     0.44050   0.89330   0.84620   0.01267  Uiso   1.00
O40    O     0.55800   0.81760   0.81730   0.01267  Uiso   1.00
O41    O     0.53700   0.91430   0.77260   0.01267  Uiso   1.00
F25    F     0.38350   0.86330   0.76610   0.01267  Uiso   1.00
F26    F     0.45200   0.90130   0.71490   0.01267  Uiso   1.00
F27    F     0.49600   0.81550   0.73420   0.01267  Uiso   1.00
C142   C     0.63450   0.05070   0.68420   0.01267  Uiso   1.00
S10    S     0.56200   0.11710   0.66450   0.01267  Uiso   1.00
O42    O     0.50700   0.09340   0.64130   0.01267  Uiso   1.00
O43    O     0.60300   0.15490   0.62920   0.01267  Uiso   1.00
O44    O     0.54200   0.13500   0.71250   0.01267  Uiso   1.00
F28    F     0.60800   0.01510   0.71440   0.01267  Uiso   1.00
F29    F     0.67300   0.02300   0.64570   0.01267  Uiso   1.00
F30    F     0.69450   0.06270   0.69960   0.01267  Uiso   1.00
C143   C     0.99040   0.43030   0.93640   0.01267  Uiso   1.00
S11    S     0.91680   0.40470   0.91683   0.01267  Uiso   1.00
O45    O     0.96370   0.36030   0.88300   0.01267  Uiso   1.00
O46    O     0.86770   0.45780   0.89220   0.01267  Uiso   1.00
O47    O     0.88000   0.37710   0.96230   0.01267  Uiso   1.00
F31    F     0.96710   0.46760   0.96100   0.01267  Uiso   1.00
F32    F     0.04170   0.38390   0.96110   0.01267  Uiso   1.00
F33    F     0.04230   0.44590   0.89710   0.01267  Uiso   1.00
C144   C     0.48340   0.55800   0.76030   0.01267  Uiso   1.00
S12    S     0.41830   0.51010   0.75351   0.01267  Uiso   1.00
O48    O     0.42340   0.46550   0.80160   0.01267  Uiso   1.00
O49    O     0.44950   0.48730   0.70750   0.01267  Uiso   1.00
O50    O     0.34450   0.54980   0.75240   0.01267  Uiso   1.00
F34    F     0.56130   0.51680   0.75470   0.01267  Uiso   1.00
F35    F     0.46980   0.57180   0.80010   0.01267  Uiso   1.00
F36    F     0.47730   0.60200   0.71660   0.01267  Uiso   1.00
C145   C     0.00320   0.83050   0.57880   0.01267  Uiso   1.00
S13    S     0.94120   0.89900   0.57750   0.01267  Uiso   1.00
O51    O     0.88490   0.89690   0.54390   0.01267  Uiso   1.00
O52    O     0.97700   0.94560   0.55210   0.01267  Uiso   1.00
O53    O     0.91090   0.89850   0.62900   0.01267  Uiso   1.00
F37    F     0.04310   0.82260   0.53270   0.01267  Uiso   1.00
F38    F     0.05530   0.81170   0.61020   0.01267  Uiso   1.00
F39    F     0.97510   0.78710   0.59450   0.01267  Uiso   1.00
C146   C     0.20110   0.82720   0.90100   0.01267  Uiso   1.00
S14    S     0.12850   0.88350   0.93220   0.01267  Uiso   1.00
O54    O     0.13960   0.93840   0.89710   0.01267  Uiso   1.00
O55    O     0.05880   0.86750   0.92130   0.01267  Uiso   1.00
O56    O     0.14900   0.85950   0.97840   0.01267  Uiso   1.00
F40    F     0.26590   0.82270   0.90710   0.01267  Uiso   1.00
F41    F     0.18520   0.77310   0.91690   0.01267  Uiso   1.00
F42    F     0.18320   0.83840   0.85390   0.01267  Uiso   1.00
C147   C     0.94300   0.30280   0.53370   0.01267  Uiso   1.00
S15    S     0.88260   0.35790   0.56710   0.01267  Uiso   1.00
O57    O     0.94440   0.38750   0.58550   0.01267  Uiso   1.00
O58    O     0.83970   0.32360   0.61090   0.01267  Uiso   1.00
O59    O     0.85370   0.40690   0.52810   0.01267  Uiso   1.00
F43    F     0.87600   0.29360   0.51800   0.01267  Uiso   1.00
F44    F     0.98880   0.32640   0.49590   0.01267  Uiso   1.00
F45    F     0.99360   0.26840   0.56260   0.01267  Uiso   1.00
C148   C     0.21690   0.28760   0.84230   0.01267  Uiso   1.00
S16    S     0.19540   0.22600   0.88620   0.01267  Uiso   1.00
O60    O     0.18400   0.24190   0.93790   0.01267  Uiso   1.00
O61    O     0.27100   0.18310   0.87830   0.01267  Uiso   1.00
O62    O     0.13300   0.21900   0.86420   0.01267  Uiso   1.00
F46    F     0.23800   0.27630   0.80190   0.01267  Uiso   1.00
F47    F     0.27580   0.30240   0.85890   0.01267  Uiso   1.00
F48    F     0.16120   0.33620   0.85020   0.01267  Uiso   1.00
C149   C     0.54840   0.14060   0.24270   0.01267  Uiso   1.00
S17    S     0.49890   0.12850   0.19620   0.01267  Uiso   1.00
O63    O     0.55950   0.10670   0.15380   0.01267  Uiso   1.00
O64    O     0.44200   0.18240   0.18270   0.01267  Uiso   1.00
O65    O     0.46300   0.08570   0.22740   0.01267  Uiso   1.00
F49    F     0.61650   0.13670   0.23390   0.01267  Uiso   1.00
F50    F     0.54800   0.09870   0.28510   0.01267  Uiso   1.00
F51    F     0.50400   0.18450   0.26580   0.01267  Uiso   1.00
C150   C     0.36550   0.94930   0.31580   0.01267  Uiso   1.00
S18    S     0.43800   0.88290   0.33550   0.01267  Uiso   1.00
O66    O     0.49300   0.90660   0.35870   0.01267  Uiso   1.00
O67    O     0.39700   0.84510   0.37080   0.01267  Uiso   1.00
O68    O     0.45800   0.86500   0.28750   0.01267  Uiso   1.00
F52    F     0.39200   0.98490   0.28560   0.01267  Uiso   1.00
F53    F     0.32700   0.97700   0.35430   0.01267  Uiso   1.00
F54    F     0.30550   0.93730   0.30040   0.01267  Uiso   1.00
Cl1    Cl    0.70000   0.80900   0.24400   0.01267  Uiso   1.00
Cl2    Cl    0.77900   0.80000   0.31300   0.01267  Uiso   1.00
Cl3    Cl    0.30000   0.19100   0.75600   0.01267  Uiso   1.00
Cl4    Cl    0.22100   0.20000   0.68700   0.01267  Uiso   1.00
