data_FEWTUY_clean
_audit_creation_date              2014-07-02
_audit_creation_method            'Materials Studio'
_symmetry_space_group_name_H-M    'P1'
_symmetry_Int_Tables_number       1
_symmetry_cell_setting            triclinic
loop_
_symmetry_equiv_pos_as_xyz
  x,y,z
_cell_length_a                    12.8538
_cell_length_b                    19.8687
_cell_length_c                    19.8687
_cell_angle_alpha                 102.2350
_cell_angle_beta                  107.5010
_cell_angle_gamma                 72.4993
loop_
_atom_site_label
_atom_site_type_symbol
_atom_site_fract_x
_atom_site_fract_y
_atom_site_fract_z
_atom_site_U_iso_or_equiv
_atom_site_adp_type
_atom_site_occupancy
Ni1    Ni    0.43910   0.30876   0.18322   0.01267  Uiso   1.00
Ni2    Ni    0.56090   0.18322   0.30876   0.01267  Uiso   1.00
Ni3    Ni    0.56090   0.69124   0.81678   0.01267  Uiso   1.00
Ni4    Ni    0.43910   0.81678   0.69124   0.01267  Uiso   1.00
Ni5    Ni    0.07052   0.27843   0.72157   0.01267  Uiso   1.00
Ni6    Ni    0.33777   0.28688   0.71312   0.01267  Uiso   1.00
Ni7    Ni    0.92948   0.72157   0.27843   0.01267  Uiso   1.00
Ni8    Ni    0.66223   0.71312   0.28688   0.01267  Uiso   1.00
Ni9    Ni    0.00000   0.00000   0.00000   0.01267  Uiso   1.00
H1     H     0.46170   0.31680   0.93840   0.01267  Uiso   1.00
H2     H     0.51970   0.32350   0.05950   0.01267  Uiso   1.00
H3     H     0.22050   0.32560   0.06780   0.01267  Uiso   1.00
H4     H     0.15800   0.31710   0.94590   0.01267  Uiso   1.00
H5     H     0.26260   0.15880   0.04580   0.01267  Uiso   1.00
H6     H     0.15000   0.08370   0.98350   0.01267  Uiso   1.00
H7     H     0.12130   0.03980   0.15640   0.01267  Uiso   1.00
H8     H     0.25670   0.09920   0.22440   0.01267  Uiso   1.00
H9     H     0.53830   0.93840   0.31680   0.01267  Uiso   1.00
H10    H     0.48030   0.05950   0.32350   0.01267  Uiso   1.00
H11    H     0.77950   0.06780   0.32560   0.01267  Uiso   1.00
H12    H     0.84200   0.94590   0.31710   0.01267  Uiso   1.00
H13    H     0.73740   0.04580   0.15880   0.01267  Uiso   1.00
H14    H     0.85000   0.98350   0.08370   0.01267  Uiso   1.00
H15    H     0.87870   0.15640   0.03980   0.01267  Uiso   1.00
H16    H     0.74330   0.22440   0.09920   0.01267  Uiso   1.00
H17    H     0.53830   0.68320   0.06160   0.01267  Uiso   1.00
H18    H     0.48030   0.67650   0.94050   0.01267  Uiso   1.00
H19    H     0.77950   0.67440   0.93220   0.01267  Uiso   1.00
H20    H     0.84200   0.68290   0.05410   0.01267  Uiso   1.00
H21    H     0.73740   0.84120   0.95420   0.01267  Uiso   1.00
H22    H     0.85000   0.91630   0.01650   0.01267  Uiso   1.00
H23    H     0.87870   0.96020   0.84360   0.01267  Uiso   1.00
H24    H     0.74330   0.90080   0.77560   0.01267  Uiso   1.00
H25    H     0.46170   0.06160   0.68320   0.01267  Uiso   1.00
H26    H     0.51970   0.94050   0.67650   0.01267  Uiso   1.00
H27    H     0.22050   0.93220   0.67440   0.01267  Uiso   1.00
H28    H     0.15800   0.05410   0.68290   0.01267  Uiso   1.00
H29    H     0.26260   0.95420   0.84120   0.01267  Uiso   1.00
H30    H     0.15000   0.01650   0.91630   0.01267  Uiso   1.00
H31    H     0.12130   0.84360   0.96020   0.01267  Uiso   1.00
H32    H     0.25670   0.77560   0.90080   0.01267  Uiso   1.00
H33    H     0.08510   0.11500   0.88500   0.01267  Uiso   1.00
H34    H     0.14570   0.17600   0.82400   0.01267  Uiso   1.00
H35    H     0.83890   0.26800   0.73200   0.01267  Uiso   1.00
H36    H     0.77170   0.20830   0.79170   0.01267  Uiso   1.00
H37    H     0.91490   0.88500   0.11500   0.01267  Uiso   1.00
H38    H     0.85430   0.82400   0.17600   0.01267  Uiso   1.00
H39    H     0.16110   0.73200   0.26800   0.01267  Uiso   1.00
H40    H     0.22830   0.79170   0.20830   0.01267  Uiso   1.00
C1     C     0.26720   0.30430   0.84730   0.01267  Uiso   1.00
C2     C     0.30420   0.31380   0.92820   0.01267  Uiso   1.00
C3     C     0.41120   0.31730   0.96370   0.01267  Uiso   1.00
C4     C     0.44570   0.32160   0.03680   0.01267  Uiso   1.00
C5     C     0.27110   0.32260   0.04160   0.01267  Uiso   1.00
C6     C     0.23260   0.31770   0.96810   0.01267  Uiso   1.00
C7     C     0.35590   0.18100   0.18320   0.01267  Uiso   1.00
C8     C     0.27130   0.13840   0.14020   0.01267  Uiso   1.00
C9     C     0.23800   0.13370   0.07010   0.01267  Uiso   1.00
C10    C     0.16600   0.09040   0.03300   0.01267  Uiso   1.00
C11    C     0.15200   0.06260   0.13360   0.01267  Uiso   1.00
C12    C     0.23100   0.09970   0.17550   0.01267  Uiso   1.00
C13    C     0.73280   0.84730   0.30430   0.01267  Uiso   1.00
C14    C     0.69580   0.92820   0.31380   0.01267  Uiso   1.00
C15    C     0.58880   0.96370   0.31730   0.01267  Uiso   1.00
C16    C     0.55430   0.03680   0.32160   0.01267  Uiso   1.00
C17    C     0.72890   0.04160   0.32260   0.01267  Uiso   1.00
C18    C     0.76740   0.96810   0.31770   0.01267  Uiso   1.00
C19    C     0.64410   0.18320   0.18100   0.01267  Uiso   1.00
C20    C     0.72870   0.14020   0.13840   0.01267  Uiso   1.00
C21    C     0.76200   0.07010   0.13370   0.01267  Uiso   1.00
C22    C     0.83400   0.03300   0.09040   0.01267  Uiso   1.00
C23    C     0.84800   0.13360   0.06260   0.01267  Uiso   1.00
C24    C     0.76900   0.17550   0.09970   0.01267  Uiso   1.00
C25    C     0.73280   0.69570   0.15270   0.01267  Uiso   1.00
C26    C     0.69580   0.68620   0.07180   0.01267  Uiso   1.00
C27    C     0.58880   0.68270   0.03630   0.01267  Uiso   1.00
C28    C     0.55430   0.67840   0.96320   0.01267  Uiso   1.00
C29    C     0.72890   0.67740   0.95840   0.01267  Uiso   1.00
C30    C     0.76740   0.68230   0.03190   0.01267  Uiso   1.00
C31    C     0.64410   0.81900   0.81680   0.01267  Uiso   1.00
C32    C     0.72870   0.86160   0.85980   0.01267  Uiso   1.00
C33    C     0.76200   0.86630   0.92990   0.01267  Uiso   1.00
C34    C     0.83400   0.90960   0.96700   0.01267  Uiso   1.00
C35    C     0.84800   0.93740   0.86640   0.01267  Uiso   1.00
C36    C     0.76900   0.90030   0.82450   0.01267  Uiso   1.00
C37    C     0.26720   0.15270   0.69570   0.01267  Uiso   1.00
C38    C     0.30420   0.07180   0.68620   0.01267  Uiso   1.00
C39    C     0.41120   0.03630   0.68270   0.01267  Uiso   1.00
C40    C     0.44570   0.96320   0.67840   0.01267  Uiso   1.00
C41    C     0.27110   0.95840   0.67740   0.01267  Uiso   1.00
C42    C     0.23260   0.03190   0.68230   0.01267  Uiso   1.00
C43    C     0.35590   0.81680   0.81900   0.01267  Uiso   1.00
C44    C     0.27130   0.85980   0.86160   0.01267  Uiso   1.00
C45    C     0.23800   0.92990   0.86630   0.01267  Uiso   1.00
C46    C     0.16600   0.96700   0.90960   0.01267  Uiso   1.00
C47    C     0.15200   0.86640   0.93740   0.01267  Uiso   1.00
C48    C     0.23100   0.82450   0.90030   0.01267  Uiso   1.00
C49    C     0.87800   0.11530   0.88470   0.01267  Uiso   1.00
C50    C     0.92180   0.15400   0.84600   0.01267  Uiso   1.00
C51    C     0.03240   0.14570   0.85430   0.01267  Uiso   1.00
C52    C     0.06870   0.18280   0.81720   0.01267  Uiso   1.00
C53    C     0.89030   0.23700   0.76300   0.01267  Uiso   1.00
C54    C     0.84920   0.20070   0.79930   0.01267  Uiso   1.00
C55    C     0.12200   0.88470   0.11530   0.01267  Uiso   1.00
C56    C     0.07820   0.84600   0.15400   0.01267  Uiso   1.00
C57    C     0.96760   0.85430   0.14570   0.01267  Uiso   1.00
C58    C     0.93130   0.81720   0.18280   0.01267  Uiso   1.00
C59    C     0.10970   0.76300   0.23700   0.01267  Uiso   1.00
C60    C     0.15080   0.79930   0.20070   0.01267  Uiso   1.00
N1     N     0.37710   0.32310   0.07630   0.01267  Uiso   1.00
N2     N     0.11770   0.05820   0.06200   0.01267  Uiso   1.00
N3     N     0.62290   0.07630   0.32310   0.01267  Uiso   1.00
N4     N     0.88230   0.06200   0.05820   0.01267  Uiso   1.00
N5     N     0.62290   0.67690   0.92370   0.01267  Uiso   1.00
N6     N     0.88230   0.94180   0.93800   0.01267  Uiso   1.00
N7     N     0.37710   0.92370   0.67690   0.01267  Uiso   1.00
N8     N     0.11770   0.93800   0.94180   0.01267  Uiso   1.00
N9     N     0.99520   0.22870   0.77130   0.01267  Uiso   1.00
N10    N     0.00480   0.77130   0.22870   0.01267  Uiso   1.00
O1     O     0.33770   0.30110   0.81690   0.01267  Uiso   1.00
O2     O     0.16850   0.30040   0.82060   0.01267  Uiso   1.00
O3     O     0.33960   0.23890   0.16210   0.01267  Uiso   1.00
O4     O     0.42990   0.15370   0.23230   0.01267  Uiso   1.00
O5     O     0.66230   0.81690   0.30110   0.01267  Uiso   1.00
O6     O     0.83150   0.82060   0.30040   0.01267  Uiso   1.00
O7     O     0.66040   0.16210   0.23890   0.01267  Uiso   1.00
O8     O     0.57010   0.23230   0.15370   0.01267  Uiso   1.00
O9     O     0.66230   0.69890   0.18310   0.01267  Uiso   1.00
O10    O     0.83150   0.69960   0.17940   0.01267  Uiso   1.00
O11    O     0.66040   0.76110   0.83790   0.01267  Uiso   1.00
O12    O     0.57010   0.84630   0.76770   0.01267  Uiso   1.00
O13    O     0.33770   0.18310   0.69890   0.01267  Uiso   1.00
O14    O     0.16850   0.17940   0.69960   0.01267  Uiso   1.00
O15    O     0.33960   0.83790   0.76110   0.01267  Uiso   1.00
O16    O     0.42990   0.76770   0.84630   0.01267  Uiso   1.00
O17    O     0.95060   0.07410   0.92590   0.01267  Uiso   1.00
O18    O     0.77670   0.12520   0.87480   0.01267  Uiso   1.00
O19    O     0.16030   0.32410   0.67590   0.01267  Uiso   1.00
O20    O     0.04940   0.92590   0.07410   0.01267  Uiso   1.00
O21    O     0.22330   0.87480   0.12520   0.01267  Uiso   1.00
O22    O     0.83970   0.67590   0.32410   0.01267  Uiso   1.00
O23    O     0.50000   0.29010   0.29010   0.01267  Uiso   1.00
O24    O     0.50000   0.70990   0.70990   0.01267  Uiso   1.00
