data_FEXHOG_clean
_audit_creation_date              2014-07-02
_audit_creation_method            'Materials Studio'
_symmetry_space_group_name_H-M    'P1'
_symmetry_Int_Tables_number       1
_symmetry_cell_setting            triclinic
loop_
_symmetry_equiv_pos_as_xyz
  x,y,z
_cell_length_a                    4.7154
_cell_length_b                    10.7124
_cell_length_c                    19.8268
_cell_angle_alpha                 90.0000
_cell_angle_beta                  90.0000
_cell_angle_gamma                 95.0650
loop_
_atom_site_label
_atom_site_type_symbol
_atom_site_fract_x
_atom_site_fract_y
_atom_site_fract_z
_atom_site_U_iso_or_equiv
_atom_site_adp_type
_atom_site_occupancy
Cu1    Cu    0.29340   0.46200   0.66293   0.01267  Uiso   1.00
Cu2    Cu    0.70660   0.03800   0.16293   0.01267  Uiso   1.00
Cu3    Cu    0.70660   0.53800   0.33707   0.01267  Uiso   1.00
Cu4    Cu    0.29340   0.96200   0.83707   0.01267  Uiso   1.00
H1     H     0.20560   0.43967   0.92040   0.01267  Uiso   1.00
H2     H     0.40215   0.53586   0.81049   0.01267  Uiso   1.00
H3     H     0.63182   0.33349   0.56442   0.01267  Uiso   1.00
H4     H     0.19364   0.61902   0.55797   0.01267  Uiso   1.00
H5     H     0.79440   0.06033   0.42040   0.01267  Uiso   1.00
H6     H     0.59785   0.96414   0.31049   0.01267  Uiso   1.00
H7     H     0.36818   0.16651   0.06442   0.01267  Uiso   1.00
H8     H     0.80636   0.88098   0.05797   0.01267  Uiso   1.00
H9     H     0.79440   0.56033   0.07960   0.01267  Uiso   1.00
H10    H     0.59785   0.46414   0.18951   0.01267  Uiso   1.00
H11    H     0.36818   0.66651   0.43558   0.01267  Uiso   1.00
H12    H     0.80636   0.38098   0.44203   0.01267  Uiso   1.00
H13    H     0.20560   0.93967   0.57960   0.01267  Uiso   1.00
H14    H     0.40215   0.03586   0.68951   0.01267  Uiso   1.00
H15    H     0.63182   0.83349   0.93558   0.01267  Uiso   1.00
H16    H     0.19364   0.11902   0.94203   0.01267  Uiso   1.00
C1     C     0.03000   0.30100   0.75320   0.01267  Uiso   1.00
C2     C     0.94000   0.24700   0.81400   0.01267  Uiso   1.00
C3     C     0.16900   0.40500   0.87670   0.01267  Uiso   1.00
C4     C     0.28200   0.46000   0.81240   0.01267  Uiso   1.00
C5     C     0.01500   0.23900   0.69100   0.01267  Uiso   1.00
C6     C     0.76200   0.11400   0.82460   0.01267  Uiso   1.00
C7     C     0.58600   0.40000   0.53610   0.01267  Uiso   1.00
C8     C     0.32000   0.57400   0.53220   0.01267  Uiso   1.00
C9     C     0.97000   0.19900   0.25320   0.01267  Uiso   1.00
C10    C     0.06000   0.25300   0.31400   0.01267  Uiso   1.00
C11    C     0.83100   0.09500   0.37670   0.01267  Uiso   1.00
C12    C     0.71800   0.04000   0.31240   0.01267  Uiso   1.00
C13    C     0.98500   0.26100   0.19100   0.01267  Uiso   1.00
C14    C     0.23800   0.38600   0.32460   0.01267  Uiso   1.00
C15    C     0.41400   0.10000   0.03610   0.01267  Uiso   1.00
C16    C     0.68000   0.92600   0.03220   0.01267  Uiso   1.00
C17    C     0.97000   0.69900   0.24680   0.01267  Uiso   1.00
C18    C     0.06000   0.75300   0.18600   0.01267  Uiso   1.00
C19    C     0.83100   0.59500   0.12330   0.01267  Uiso   1.00
C20    C     0.71800   0.54000   0.18760   0.01267  Uiso   1.00
C21    C     0.98500   0.76100   0.30900   0.01267  Uiso   1.00
C22    C     0.23800   0.88600   0.17540   0.01267  Uiso   1.00
C23    C     0.41400   0.60000   0.46390   0.01267  Uiso   1.00
C24    C     0.68000   0.42600   0.46780   0.01267  Uiso   1.00
C25    C     0.03000   0.80100   0.74680   0.01267  Uiso   1.00
C26    C     0.94000   0.74700   0.68600   0.01267  Uiso   1.00
C27    C     0.16900   0.90500   0.62330   0.01267  Uiso   1.00
C28    C     0.28200   0.96000   0.68760   0.01267  Uiso   1.00
C29    C     0.01500   0.73900   0.80900   0.01267  Uiso   1.00
C30    C     0.76200   0.61400   0.67540   0.01267  Uiso   1.00
C31    C     0.58600   0.90000   0.96390   0.01267  Uiso   1.00
C32    C     0.32000   0.07400   0.96780   0.01267  Uiso   1.00
N1     N     0.22000   0.40400   0.75090   0.01267  Uiso   1.00
N2     N     0.00100   0.29900   0.87570   0.01267  Uiso   1.00
N3     N     0.42100   0.47800   0.56070   0.01267  Uiso   1.00
N4     N     0.78000   0.09600   0.25090   0.01267  Uiso   1.00
N5     N     0.99900   0.20100   0.37570   0.01267  Uiso   1.00
N6     N     0.57900   0.02200   0.06070   0.01267  Uiso   1.00
N7     N     0.78000   0.59600   0.24910   0.01267  Uiso   1.00
N8     N     0.99900   0.70100   0.12430   0.01267  Uiso   1.00
N9     N     0.57900   0.52200   0.43930   0.01267  Uiso   1.00
N10    N     0.22000   0.90400   0.74910   0.01267  Uiso   1.00
N11    N     0.00100   0.79900   0.62430   0.01267  Uiso   1.00
N12    N     0.42100   0.97800   0.93930   0.01267  Uiso   1.00
O1     O     0.12700   0.29000   0.63640   0.01267  Uiso   1.00
O2     O     0.83800   0.13500   0.68400   0.01267  Uiso   1.00
O3     O     0.47900   0.13400   0.81730   0.01267  Uiso   1.00
O4     O     0.87100   0.03000   0.84150   0.01267  Uiso   1.00
O5     O     0.87300   0.21000   0.13640   0.01267  Uiso   1.00
O6     O     0.16200   0.36500   0.18400   0.01267  Uiso   1.00
O7     O     0.52100   0.36600   0.31730   0.01267  Uiso   1.00
O8     O     0.12900   0.47000   0.34150   0.01267  Uiso   1.00
O9     O     0.87300   0.71000   0.36360   0.01267  Uiso   1.00
O10    O     0.16200   0.86500   0.31600   0.01267  Uiso   1.00
O11    O     0.52100   0.86600   0.18270   0.01267  Uiso   1.00
O12    O     0.12900   0.97000   0.15850   0.01267  Uiso   1.00
O13    O     0.12700   0.79000   0.86360   0.01267  Uiso   1.00
O14    O     0.83800   0.63500   0.81600   0.01267  Uiso   1.00
O15    O     0.47900   0.63400   0.68270   0.01267  Uiso   1.00
O16    O     0.87100   0.53000   0.65850   0.01267  Uiso   1.00
