data_FEXHOG01_clean
_audit_creation_date              2014-07-02
_audit_creation_method            'Materials Studio'
_symmetry_space_group_name_H-M    'P1'
_symmetry_Int_Tables_number       1
_symmetry_cell_setting            triclinic
loop_
_symmetry_equiv_pos_as_xyz
  x,y,z
_cell_length_a                    4.7331
_cell_length_b                    10.8678
_cell_length_c                    19.9244
_cell_angle_alpha                 90.0000
_cell_angle_beta                  90.0000
_cell_angle_gamma                 96.0090
loop_
_atom_site_label
_atom_site_type_symbol
_atom_site_fract_x
_atom_site_fract_y
_atom_site_fract_z
_atom_site_U_iso_or_equiv
_atom_site_adp_type
_atom_site_occupancy
Cu1    Cu    0.29680   0.46210   0.66310   0.01267  Uiso   1.00
Cu2    Cu    0.70320   0.03790   0.16310   0.01267  Uiso   1.00
Cu3    Cu    0.70320   0.53790   0.33690   0.01267  Uiso   1.00
Cu4    Cu    0.29680   0.96210   0.83690   0.01267  Uiso   1.00
H1     H     0.22478   0.44767   0.91533   0.01267  Uiso   1.00
H2     H     0.42094   0.53110   0.81480   0.01267  Uiso   1.00
H3     H     0.58119   0.33035   0.56006   0.01267  Uiso   1.00
H4     H     0.27948   0.65146   0.55022   0.01267  Uiso   1.00
H5     H     0.77522   0.05233   0.41533   0.01267  Uiso   1.00
H6     H     0.57906   0.96890   0.31480   0.01267  Uiso   1.00
H7     H     0.41881   0.16965   0.06006   0.01267  Uiso   1.00
H8     H     0.72052   0.84854   0.05022   0.01267  Uiso   1.00
H9     H     0.77522   0.55233   0.08467   0.01267  Uiso   1.00
H10    H     0.57906   0.46890   0.18520   0.01267  Uiso   1.00
H11    H     0.41881   0.66965   0.43994   0.01267  Uiso   1.00
H12    H     0.72052   0.34854   0.44978   0.01267  Uiso   1.00
H13    H     0.22478   0.94767   0.58467   0.01267  Uiso   1.00
H14    H     0.42094   0.03110   0.68520   0.01267  Uiso   1.00
H15    H     0.58119   0.83035   0.93994   0.01267  Uiso   1.00
H16    H     0.27948   0.15146   0.94978   0.01267  Uiso   1.00
C1     C     0.04700   0.29500   0.75660   0.01267  Uiso   1.00
C2     C     0.93100   0.24700   0.81550   0.01267  Uiso   1.00
C3     C     0.17400   0.40600   0.87270   0.01267  Uiso   1.00
C4     C     0.29000   0.45800   0.81470   0.01267  Uiso   1.00
C5     C     0.99900   0.23600   0.68720   0.01267  Uiso   1.00
C6     C     0.74100   0.12900   0.82390   0.01267  Uiso   1.00
C7     C     0.54700   0.40400   0.53660   0.01267  Uiso   1.00
C8     C     0.37200   0.58800   0.53050   0.01267  Uiso   1.00
C9     C     0.95300   0.20500   0.25660   0.01267  Uiso   1.00
C10    C     0.06900   0.25300   0.31550   0.01267  Uiso   1.00
C11    C     0.82600   0.09400   0.37270   0.01267  Uiso   1.00
C12    C     0.71000   0.04200   0.31470   0.01267  Uiso   1.00
C13    C     0.00100   0.26400   0.18720   0.01267  Uiso   1.00
C14    C     0.25900   0.37100   0.32390   0.01267  Uiso   1.00
C15    C     0.45300   0.09600   0.03660   0.01267  Uiso   1.00
C16    C     0.62800   0.91200   0.03050   0.01267  Uiso   1.00
C17    C     0.95300   0.70500   0.24340   0.01267  Uiso   1.00
C18    C     0.06900   0.75300   0.18450   0.01267  Uiso   1.00
C19    C     0.82600   0.59400   0.12730   0.01267  Uiso   1.00
C20    C     0.71000   0.54200   0.18530   0.01267  Uiso   1.00
C21    C     0.00100   0.76400   0.31280   0.01267  Uiso   1.00
C22    C     0.25900   0.87100   0.17610   0.01267  Uiso   1.00
C23    C     0.45300   0.59600   0.46340   0.01267  Uiso   1.00
C24    C     0.62800   0.41200   0.46950   0.01267  Uiso   1.00
C25    C     0.04700   0.79500   0.74340   0.01267  Uiso   1.00
C26    C     0.93100   0.74700   0.68450   0.01267  Uiso   1.00
C27    C     0.17400   0.90600   0.62730   0.01267  Uiso   1.00
C28    C     0.29000   0.95800   0.68530   0.01267  Uiso   1.00
C29    C     0.99900   0.73600   0.81280   0.01267  Uiso   1.00
C30    C     0.74100   0.62900   0.67610   0.01267  Uiso   1.00
C31    C     0.54700   0.90400   0.96340   0.01267  Uiso   1.00
C32    C     0.37200   0.08800   0.96950   0.01267  Uiso   1.00
N1     N     0.22200   0.40000   0.75630   0.01267  Uiso   1.00
N2     N     0.99700   0.30300   0.87320   0.01267  Uiso   1.00
N3     N     0.42500   0.49090   0.56630   0.01267  Uiso   1.00
N4     N     0.77800   0.10000   0.25630   0.01267  Uiso   1.00
N5     N     0.00300   0.19700   0.37320   0.01267  Uiso   1.00
N6     N     0.57500   0.00910   0.06630   0.01267  Uiso   1.00
N7     N     0.77800   0.60000   0.24370   0.01267  Uiso   1.00
N8     N     0.00300   0.69700   0.12680   0.01267  Uiso   1.00
N9     N     0.57500   0.50910   0.43370   0.01267  Uiso   1.00
N10    N     0.22200   0.90000   0.74370   0.01267  Uiso   1.00
N11    N     0.99700   0.80300   0.62680   0.01267  Uiso   1.00
N12    N     0.42500   0.99090   0.93370   0.01267  Uiso   1.00
O1     O     0.12000   0.29710   0.64100   0.01267  Uiso   1.00
O2     O     0.83500   0.14260   0.68170   0.01267  Uiso   1.00
O3     O     0.48400   0.13440   0.81090   0.01267  Uiso   1.00
O4     O     0.85000   0.03180   0.83030   0.01267  Uiso   1.00
O5     O     0.88000   0.20290   0.14100   0.01267  Uiso   1.00
O6     O     0.16500   0.35740   0.18170   0.01267  Uiso   1.00
O7     O     0.51600   0.36560   0.31090   0.01267  Uiso   1.00
O8     O     0.15000   0.46820   0.33030   0.01267  Uiso   1.00
O9     O     0.88000   0.70290   0.35900   0.01267  Uiso   1.00
O10    O     0.16500   0.85740   0.31830   0.01267  Uiso   1.00
O11    O     0.51600   0.86560   0.18910   0.01267  Uiso   1.00
O12    O     0.15000   0.96820   0.16970   0.01267  Uiso   1.00
O13    O     0.12000   0.79710   0.85900   0.01267  Uiso   1.00
O14    O     0.83500   0.64260   0.81830   0.01267  Uiso   1.00
O15    O     0.48400   0.63440   0.68910   0.01267  Uiso   1.00
O16    O     0.85000   0.53180   0.66970   0.01267  Uiso   1.00
