data_FIBHEF_clean
_audit_creation_date              2014-07-02
_audit_creation_method            'Materials Studio'
_symmetry_space_group_name_H-M    'P1'
_symmetry_Int_Tables_number       1
_symmetry_cell_setting            triclinic
loop_
_symmetry_equiv_pos_as_xyz
  x,y,z
_cell_length_a                    11.4262
_cell_length_b                    11.4509
_cell_length_c                    12.5243
_cell_angle_alpha                 66.6200
_cell_angle_beta                  89.1820
_cell_angle_gamma                 69.9080
loop_
_atom_site_label
_atom_site_type_symbol
_atom_site_fract_x
_atom_site_fract_y
_atom_site_fract_z
_atom_site_U_iso_or_equiv
_atom_site_adp_type
_atom_site_occupancy
Cu1    Cu    0.87294   0.18099   0.08289   0.01267  Uiso   1.00
Cu2    Cu    0.04699   0.86790   0.49394   0.01267  Uiso   1.00
Cu3    Cu    0.81586   0.63671   0.78168   0.01267  Uiso   1.00
Cu4    Cu    0.12706   0.81901   0.91711   0.01267  Uiso   1.00
Cu5    Cu    0.95301   0.13210   0.50606   0.01267  Uiso   1.00
Cu6    Cu    0.18414   0.36329   0.21832   0.01267  Uiso   1.00
H1     H     0.45290   0.41780   0.84880   0.01267  Uiso   1.00
H2     H     0.44130   0.51360   0.91280   0.01267  Uiso   1.00
H3     H     0.32570   0.47730   0.89200   0.01267  Uiso   1.00
H4     H     0.18820   0.61990   0.70900   0.01267  Uiso   1.00
H5     H     0.89300   0.88650   0.20990   0.01267  Uiso   1.00
H6     H     0.29880   0.99910   0.48610   0.01267  Uiso   1.00
H7     H     0.42180   0.90070   0.46460   0.01267  Uiso   1.00
H8     H     0.29030   0.92780   0.40390   0.01267  Uiso   1.00
H9     H     0.59470   0.60570   0.75610   0.01267  Uiso   1.00
H10    H     0.57490   0.73110   0.63590   0.01267  Uiso   1.00
H11    H     0.35630   0.87840   0.77200   0.01267  Uiso   1.00
H12    H     0.37830   0.01040   0.86530   0.01267  Uiso   1.00
H13    H     0.57830   0.98750   0.92720   0.01267  Uiso   1.00
H14    H     0.83870   0.87330   0.82070   0.01267  Uiso   1.00
H15    H     0.85810   0.73320   0.92610   0.01267  Uiso   1.00
H16    H     0.80510   0.67430   0.22090   0.01267  Uiso   1.00
H17    H     0.88780   0.61930   0.13780   0.01267  Uiso   1.00
H18    H     0.95080   0.63850   0.23690   0.01267  Uiso   1.00
H19    H     0.77300   0.22220   0.84650   0.01267  Uiso   1.00
H20    H     0.85190   0.12740   0.78840   0.01267  Uiso   1.00
H21    H     0.70920   0.15030   0.79570   0.01267  Uiso   1.00
H22    H     0.54710   0.58220   0.15120   0.01267  Uiso   1.00
H23    H     0.55870   0.48640   0.08720   0.01267  Uiso   1.00
H24    H     0.67430   0.52270   0.10800   0.01267  Uiso   1.00
H25    H     0.81180   0.38010   0.29100   0.01267  Uiso   1.00
H26    H     0.10700   0.11350   0.79010   0.01267  Uiso   1.00
H27    H     0.70120   0.00090   0.51390   0.01267  Uiso   1.00
H28    H     0.57820   0.09930   0.53540   0.01267  Uiso   1.00
H29    H     0.70970   0.07220   0.59610   0.01267  Uiso   1.00
H30    H     0.40530   0.39430   0.24390   0.01267  Uiso   1.00
H31    H     0.42510   0.26890   0.36410   0.01267  Uiso   1.00
H32    H     0.64370   0.12160   0.22800   0.01267  Uiso   1.00
H33    H     0.62170   0.98960   0.13470   0.01267  Uiso   1.00
H34    H     0.42170   0.01250   0.07280   0.01267  Uiso   1.00
H35    H     0.16130   0.12670   0.17930   0.01267  Uiso   1.00
H36    H     0.14190   0.26680   0.07390   0.01267  Uiso   1.00
H37    H     0.19490   0.32570   0.77910   0.01267  Uiso   1.00
H38    H     0.11220   0.38070   0.86220   0.01267  Uiso   1.00
H39    H     0.04920   0.36150   0.76310   0.01267  Uiso   1.00
H40    H     0.22700   0.77780   0.15350   0.01267  Uiso   1.00
H41    H     0.14810   0.87260   0.21160   0.01267  Uiso   1.00
H42    H     0.29080   0.84970   0.20430   0.01267  Uiso   1.00
C1     C     0.39750   0.49570   0.85980   0.01267  Uiso   1.00
C2     C     0.35540   0.61580   0.74600   0.01267  Uiso   1.00
C3     C     0.41130   0.70280   0.68010   0.01267  Uiso   1.00
C4     C     0.32450   0.79730   0.57820   0.01267  Uiso   1.00
C5     C     0.33480   0.91720   0.47360   0.01267  Uiso   1.00
C6     C     0.54040   0.69970   0.70860   0.01267  Uiso   1.00
C7     C     0.54270   0.78650   0.77340   0.01267  Uiso   1.00
C8     C     0.43570   0.87280   0.79510   0.01267  Uiso   1.00
C9     C     0.44900   0.95030   0.85150   0.01267  Uiso   1.00
C10    C     0.56760   0.93790   0.88710   0.01267  Uiso   1.00
C11    C     0.67240   0.84900   0.86190   0.01267  Uiso   1.00
C12    C     0.80740   0.83030   0.89250   0.01267  Uiso   1.00
C13    C     0.87710   0.67470   0.18070   0.01267  Uiso   1.00
C14    C     0.85800   0.81830   0.09710   0.01267  Uiso   1.00
C15    C     0.82540   0.88850   0.97760   0.01267  Uiso   1.00
C16    C     0.82000   0.02150   0.95080   0.01267  Uiso   1.00
C17    C     0.78550   0.14080   0.83520   0.01267  Uiso   1.00
C18    C     0.97710   0.00210   0.34310   0.01267  Uiso   1.00
C19    C     0.90990   0.69810   0.66440   0.01267  Uiso   1.00
C20    C     0.84280   0.35880   0.97270   0.01267  Uiso   1.00
C21    C     0.60250   0.50430   0.14020   0.01267  Uiso   1.00
C22    C     0.64460   0.38420   0.25400   0.01267  Uiso   1.00
C23    C     0.58870   0.29720   0.31990   0.01267  Uiso   1.00
C24    C     0.67550   0.20270   0.42180   0.01267  Uiso   1.00
C25    C     0.66520   0.08280   0.52640   0.01267  Uiso   1.00
C26    C     0.45960   0.30030   0.29140   0.01267  Uiso   1.00
C27    C     0.45730   0.21350   0.22660   0.01267  Uiso   1.00
C28    C     0.56430   0.12720   0.20490   0.01267  Uiso   1.00
C29    C     0.55100   0.04970   0.14850   0.01267  Uiso   1.00
C30    C     0.43240   0.06210   0.11290   0.01267  Uiso   1.00
C31    C     0.32760   0.15100   0.13810   0.01267  Uiso   1.00
C32    C     0.19260   0.16970   0.10750   0.01267  Uiso   1.00
C33    C     0.12290   0.32530   0.81930   0.01267  Uiso   1.00
C34    C     0.14200   0.18170   0.90290   0.01267  Uiso   1.00
C35    C     0.17460   0.11150   0.02240   0.01267  Uiso   1.00
C36    C     0.18000   0.97850   0.04920   0.01267  Uiso   1.00
C37    C     0.21450   0.85920   0.16480   0.01267  Uiso   1.00
C38    C     0.02290   0.99790   0.65690   0.01267  Uiso   1.00
C39    C     0.09010   0.30190   0.33560   0.01267  Uiso   1.00
C40    C     0.15720   0.64120   0.02730   0.01267  Uiso   1.00
N1     N     0.21970   0.76930   0.58290   0.01267  Uiso   1.00
N2     N     0.24160   0.65900   0.68500   0.01267  Uiso   1.00
N3     N     0.65850   0.77510   0.80660   0.01267  Uiso   1.00
N4     N     0.87190   0.90680   0.13720   0.01267  Uiso   1.00
N5     N     0.84820   0.03270   0.04800   0.01267  Uiso   1.00
N6     N     0.93480   0.07550   0.24830   0.01267  Uiso   1.00
N7     N     0.96750   0.74160   0.59780   0.01267  Uiso   1.00
N8     N     0.83020   0.46260   0.90320   0.01267  Uiso   1.00
N9     N     0.78030   0.23070   0.41710   0.01267  Uiso   1.00
N10    N     0.75840   0.34100   0.31500   0.01267  Uiso   1.00
N11    N     0.34150   0.22490   0.19340   0.01267  Uiso   1.00
N12    N     0.12810   0.09320   0.86280   0.01267  Uiso   1.00
N13    N     0.15180   0.96730   0.95200   0.01267  Uiso   1.00
N14    N     0.06520   0.92450   0.75170   0.01267  Uiso   1.00
N15    N     0.03250   0.25840   0.40220   0.01267  Uiso   1.00
N16    N     0.16980   0.53740   0.09680   0.01267  Uiso   1.00
