data_FIHLUF_clean
_audit_creation_date              2014-07-02
_audit_creation_method            'Materials Studio'
_symmetry_space_group_name_H-M    'P1'
_symmetry_Int_Tables_number       1
_symmetry_cell_setting            triclinic
loop_
_symmetry_equiv_pos_as_xyz
  x,y,z
_cell_length_a                    10.5259
_cell_length_b                    11.6385
_cell_length_c                    14.3080
_cell_angle_alpha                 105.0790
_cell_angle_beta                  103.9240
_cell_angle_gamma                 100.7170
loop_
_atom_site_label
_atom_site_type_symbol
_atom_site_fract_x
_atom_site_fract_y
_atom_site_fract_z
_atom_site_U_iso_or_equiv
_atom_site_adp_type
_atom_site_occupancy
Mn1    Mn    0.99037   0.21722   0.21305   0.01267  Uiso   1.00
Mn2    Mn    0.28978   0.47588   0.27517   0.01267  Uiso   1.00
Mn3    Mn    0.00963   0.78278   0.78695   0.01267  Uiso   1.00
Mn4    Mn    0.71022   0.52412   0.72483   0.01267  Uiso   1.00
H1     H     0.04680   0.46630   0.30020   0.01267  Uiso   1.00
H2     H     0.01940   0.43610   0.19970   0.01267  Uiso   1.00
H3     H     0.97130   0.00130   0.29730   0.01267  Uiso   1.00
H4     H     0.84540   0.66780   0.07820   0.01267  Uiso   1.00
H5     H     0.87130   0.98580   0.01000   0.01267  Uiso   1.00
H6     H     0.97670   0.62860   0.20860   0.01267  Uiso   1.00
H7     H     0.98890   0.64420   0.32530   0.01267  Uiso   1.00
H8     H     0.89180   0.68910   0.44010   0.01267  Uiso   1.00
H9     H     0.52170   0.58240   0.47460   0.01267  Uiso   1.00
H10    H     0.35960   0.77750   0.34590   0.01267  Uiso   1.00
H11    H     0.26000   0.05400   0.22170   0.01267  Uiso   1.00
H12    H     0.36370   0.14900   0.32670   0.01267  Uiso   1.00
H13    H     0.65790   0.10660   0.16370   0.01267  Uiso   1.00
H14    H     0.93320   0.34980   0.40780   0.01267  Uiso   1.00
H15    H     0.54840   0.24520   0.41220   0.01267  Uiso   1.00
H16    H     0.25400   0.90030   0.10690   0.01267  Uiso   1.00
H17    H     0.17560   0.53570   0.07300   0.01267  Uiso   1.00
H18    H     0.55470   0.51400   0.19870   0.01267  Uiso   1.00
H19    H     0.95320   0.53370   0.69980   0.01267  Uiso   1.00
H20    H     0.98060   0.56390   0.80030   0.01267  Uiso   1.00
H21    H     0.02870   0.99870   0.70270   0.01267  Uiso   1.00
H22    H     0.15460   0.33220   0.92180   0.01267  Uiso   1.00
H23    H     0.12870   0.01420   0.99000   0.01267  Uiso   1.00
H24    H     0.02330   0.37140   0.79140   0.01267  Uiso   1.00
H25    H     0.01110   0.35580   0.67470   0.01267  Uiso   1.00
H26    H     0.10820   0.31090   0.55990   0.01267  Uiso   1.00
H27    H     0.47830   0.41760   0.52540   0.01267  Uiso   1.00
H28    H     0.64040   0.22250   0.65410   0.01267  Uiso   1.00
H29    H     0.74000   0.94600   0.77830   0.01267  Uiso   1.00
H30    H     0.63630   0.85100   0.67330   0.01267  Uiso   1.00
H31    H     0.34210   0.89340   0.83630   0.01267  Uiso   1.00
H32    H     0.06680   0.65020   0.59220   0.01267  Uiso   1.00
H33    H     0.45160   0.75480   0.58780   0.01267  Uiso   1.00
H34    H     0.74600   0.09970   0.89310   0.01267  Uiso   1.00
H35    H     0.82440   0.46430   0.92700   0.01267  Uiso   1.00
H36    H     0.44530   0.48600   0.80130   0.01267  Uiso   1.00
C1     C     0.94090   0.95360   0.22740   0.01267  Uiso   1.00
C2     C     0.91770   0.82760   0.20200   0.01267  Uiso   1.00
C3     C     0.86790   0.75540   0.09840   0.01267  Uiso   1.00
C4     C     0.85290   0.81710   0.02710   0.01267  Uiso   1.00
C5     C     0.88130   0.94430   0.05930   0.01267  Uiso   1.00
C6     C     0.81240   0.74900   0.91410   0.01267  Uiso   1.00
C7     C     0.93680   0.65770   0.26340   0.01267  Uiso   1.00
C8     C     0.73690   0.59810   0.30820   0.01267  Uiso   1.00
C9     C     0.79730   0.64980   0.41220   0.01267  Uiso   1.00
C10    C     0.71510   0.64240   0.47450   0.01267  Uiso   1.00
C11    C     0.77150   0.68770   0.59010   0.01267  Uiso   1.00
C12    C     0.57660   0.58780   0.43120   0.01267  Uiso   1.00
C13    C     0.32110   0.76060   0.27490   0.01267  Uiso   1.00
C14    C     0.31650   0.85880   0.23910   0.01267  Uiso   1.00
C15    C     0.35210   0.07410   0.26980   0.01267  Uiso   1.00
C16    C     0.57990   0.16590   0.27820   0.01267  Uiso   1.00
C17    C     0.68130   0.15970   0.23160   0.01267  Uiso   1.00
C18    C     0.84250   0.30060   0.37420   0.01267  Uiso   1.00
C19    C     0.74780   0.30870   0.42560   0.01267  Uiso   1.00
C20    C     0.61470   0.24060   0.37750   0.01267  Uiso   1.00
C21    C     0.79120   0.39120   0.53410   0.01267  Uiso   1.00
C22    C     0.25760   0.83480   0.13480   0.01267  Uiso   1.00
C23    C     0.20480   0.71310   0.07370   0.01267  Uiso   1.00
C24    C     0.13350   0.68390   0.96240   0.01267  Uiso   1.00
C25    C     0.21360   0.61890   0.11580   0.01267  Uiso   1.00
C26    C     0.59580   0.54690   0.27020   0.01267  Uiso   1.00
C27    C     0.05910   0.04640   0.77260   0.01267  Uiso   1.00
C28    C     0.08230   0.17240   0.79800   0.01267  Uiso   1.00
C29    C     0.13210   0.24460   0.90160   0.01267  Uiso   1.00
C30    C     0.14710   0.18290   0.97290   0.01267  Uiso   1.00
C31    C     0.11870   0.05570   0.94070   0.01267  Uiso   1.00
C32    C     0.18760   0.25100   0.08590   0.01267  Uiso   1.00
C33    C     0.06320   0.34230   0.73660   0.01267  Uiso   1.00
C34    C     0.26310   0.40190   0.69180   0.01267  Uiso   1.00
C35    C     0.20270   0.35020   0.58780   0.01267  Uiso   1.00
C36    C     0.28490   0.35760   0.52550   0.01267  Uiso   1.00
C37    C     0.22850   0.31230   0.40990   0.01267  Uiso   1.00
C38    C     0.42340   0.41220   0.56880   0.01267  Uiso   1.00
C39    C     0.67890   0.23940   0.72510   0.01267  Uiso   1.00
C40    C     0.68350   0.14120   0.76090   0.01267  Uiso   1.00
C41    C     0.64790   0.92590   0.73020   0.01267  Uiso   1.00
C42    C     0.42010   0.83410   0.72180   0.01267  Uiso   1.00
C43    C     0.31870   0.84030   0.76840   0.01267  Uiso   1.00
C44    C     0.15750   0.69940   0.62580   0.01267  Uiso   1.00
C45    C     0.25220   0.69130   0.57440   0.01267  Uiso   1.00
C46    C     0.38530   0.75940   0.62250   0.01267  Uiso   1.00
C47    C     0.20880   0.60880   0.46590   0.01267  Uiso   1.00
C48    C     0.74240   0.16520   0.86520   0.01267  Uiso   1.00
C49    C     0.79520   0.28690   0.92630   0.01267  Uiso   1.00
C50    C     0.86650   0.31610   0.03760   0.01267  Uiso   1.00
C51    C     0.78640   0.38110   0.88420   0.01267  Uiso   1.00
C52    C     0.40420   0.45310   0.72980   0.01267  Uiso   1.00
N1     N     0.92290   0.01150   0.15890   0.01267  Uiso   1.00
N2     N     0.51730   0.54230   0.32970   0.01267  Uiso   1.00
N3     N     0.81150   0.22600   0.27870   0.01267  Uiso   1.00
N4     N     0.27450   0.64210   0.21550   0.01267  Uiso   1.00
N5     N     0.07710   0.98850   0.84110   0.01267  Uiso   1.00
N6     N     0.48270   0.45770   0.67030   0.01267  Uiso   1.00
N7     N     0.18850   0.77400   0.72130   0.01267  Uiso   1.00
N8     N     0.72550   0.35790   0.78450   0.01267  Uiso   1.00
O1     O     0.94650   0.78450   0.28270   0.01267  Uiso   1.00
O2     O     0.79980   0.58930   0.23430   0.01267  Uiso   1.00
O3     O     0.74440   0.63740   0.88110   0.01267  Uiso   1.00
O4     O     0.85470   0.80990   0.86150   0.01267  Uiso   1.00
O5     O     0.44970   0.09780   0.21990   0.01267  Uiso   1.00
O6     O     0.70280   0.39140   0.58030   0.01267  Uiso   1.00
O7     O     0.91350   0.45340   0.57150   0.01267  Uiso   1.00
O8     O     0.69300   0.64940   0.63540   0.01267  Uiso   1.00
O9     O     0.88910   0.75930   0.63110   0.01267  Uiso   1.00
O10    O     0.06890   0.41730   0.25080   0.01267  Uiso   1.00
O11    O     0.07960   0.57220   0.91210   0.01267  Uiso   1.00
O12    O     0.13160   0.77320   0.92840   0.01267  Uiso   1.00
O13    O     0.36530   0.97500   0.30790   0.01267  Uiso   1.00
O14    O     0.05350   0.21550   0.71730   0.01267  Uiso   1.00
O15    O     0.20020   0.41070   0.76570   0.01267  Uiso   1.00
O16    O     0.25560   0.36260   0.11890   0.01267  Uiso   1.00
O17    O     0.14530   0.19010   0.13850   0.01267  Uiso   1.00
O18    O     0.55030   0.90220   0.78010   0.01267  Uiso   1.00
O19    O     0.29720   0.60860   0.41970   0.01267  Uiso   1.00
O20    O     0.08650   0.54660   0.42850   0.01267  Uiso   1.00
O21    O     0.30700   0.35060   0.36460   0.01267  Uiso   1.00
O22    O     0.11090   0.24070   0.36890   0.01267  Uiso   1.00
O23    O     0.93110   0.58270   0.74920   0.01267  Uiso   1.00
O24    O     0.92040   0.42780   0.08790   0.01267  Uiso   1.00
O25    O     0.86840   0.22680   0.07160   0.01267  Uiso   1.00
O26    O     0.63470   0.02500   0.69210   0.01267  Uiso   1.00
