data_FIKQIB_clean
_audit_creation_date              2014-07-02
_audit_creation_method            'Materials Studio'
_symmetry_space_group_name_H-M    'P1'
_symmetry_Int_Tables_number       1
_symmetry_cell_setting            triclinic
loop_
_symmetry_equiv_pos_as_xyz
  x,y,z
_cell_length_a                    9.4153
_cell_length_b                    13.3390
_cell_length_c                    13.4150
_cell_angle_alpha                 98.4200
_cell_angle_beta                  98.7600
_cell_angle_gamma                 99.0700
loop_
_atom_site_label
_atom_site_type_symbol
_atom_site_fract_x
_atom_site_fract_y
_atom_site_fract_z
_atom_site_U_iso_or_equiv
_atom_site_adp_type
_atom_site_occupancy
P1     P     0.80900   0.45980   0.37480   0.01267  Uiso   1.00
P2     P     0.69140   0.12500   0.04010   0.01267  Uiso   1.00
P3     P     0.19100   0.54020   0.62520   0.01267  Uiso   1.00
P4     P     0.30860   0.87500   0.95990   0.01267  Uiso   1.00
H1     H     0.51390   0.37250   0.31480   0.01267  Uiso   1.00
H2     H     0.29720   0.42780   0.30650   0.01267  Uiso   1.00
H3     H     0.29350   0.60390   0.35450   0.01267  Uiso   1.00
H4     H     0.50770   0.71230   0.43010   0.01267  Uiso   1.00
H5     H     0.72340   0.65900   0.43880   0.01267  Uiso   1.00
H6     H     0.86470   0.64940   0.29010   0.01267  Uiso   1.00
H7     H     0.02700   0.69090   0.16920   0.01267  Uiso   1.00
H8     H     0.11450   0.56910   0.07900   0.01267  Uiso   1.00
H9     H     0.08550   0.40840   0.10710   0.01267  Uiso   1.00
H10    H     0.93210   0.35760   0.22250   0.01267  Uiso   1.00
H11    H     0.88100   0.51100   0.55050   0.01267  Uiso   1.00
H12    H     0.95490   0.59510   0.49310   0.01267  Uiso   1.00
H13    H     0.77220   0.06960   0.84150   0.01267  Uiso   1.00
H14    H     0.99720   0.06630   0.78770   0.01267  Uiso   1.00
H15    H     0.21360   0.14680   0.89860   0.01267  Uiso   1.00
H16    H     0.20480   0.19180   0.07310   0.01267  Uiso   1.00
H17    H     0.98270   0.18280   0.12750   0.01267  Uiso   1.00
H18    H     0.56960   0.28030   0.14410   0.01267  Uiso   1.00
H19    H     0.42600   0.39700   0.09060   0.01267  Uiso   1.00
H20    H     0.38690   0.41850   0.92570   0.01267  Uiso   1.00
H21    H     0.46760   0.32420   0.80480   0.01267  Uiso   1.00
H22    H     0.63880   0.20980   0.85350   0.01267  Uiso   1.00
H23    H     0.62020   0.94880   0.99090   0.01267  Uiso   1.00
H24    H     0.54950   0.00580   0.90570   0.01267  Uiso   1.00
H25    H     0.48610   0.62750   0.68520   0.01267  Uiso   1.00
H26    H     0.70280   0.57220   0.69350   0.01267  Uiso   1.00
H27    H     0.70650   0.39610   0.64550   0.01267  Uiso   1.00
H28    H     0.49230   0.28770   0.56990   0.01267  Uiso   1.00
H29    H     0.27660   0.34100   0.56120   0.01267  Uiso   1.00
H30    H     0.13530   0.35060   0.70990   0.01267  Uiso   1.00
H31    H     0.97300   0.30910   0.83080   0.01267  Uiso   1.00
H32    H     0.88550   0.43090   0.92100   0.01267  Uiso   1.00
H33    H     0.91450   0.59160   0.89290   0.01267  Uiso   1.00
H34    H     0.06790   0.64240   0.77750   0.01267  Uiso   1.00
H35    H     0.11900   0.48900   0.44950   0.01267  Uiso   1.00
H36    H     0.04510   0.40490   0.50690   0.01267  Uiso   1.00
H37    H     0.22780   0.93040   0.15850   0.01267  Uiso   1.00
H38    H     0.00280   0.93370   0.21230   0.01267  Uiso   1.00
H39    H     0.78640   0.85320   0.10140   0.01267  Uiso   1.00
H40    H     0.79520   0.80820   0.92690   0.01267  Uiso   1.00
H41    H     0.01730   0.81720   0.87250   0.01267  Uiso   1.00
H42    H     0.43040   0.71970   0.85590   0.01267  Uiso   1.00
H43    H     0.57400   0.60300   0.90940   0.01267  Uiso   1.00
H44    H     0.61310   0.58150   0.07430   0.01267  Uiso   1.00
H45    H     0.53240   0.67580   0.19520   0.01267  Uiso   1.00
H46    H     0.36120   0.79020   0.14650   0.01267  Uiso   1.00
H47    H     0.37980   0.05120   0.00910   0.01267  Uiso   1.00
H48    H     0.45050   0.99420   0.09430   0.01267  Uiso   1.00
Pb1    Pb    0.75040   0.15961   0.34036   0.01267  Uiso   1.00
Pb2    Pb    0.24960   0.84039   0.65964   0.01267  Uiso   1.00
C1     C     0.64330   0.51180   0.37230   0.01267  Uiso   1.00
C2     C     0.51250   0.44260   0.33600   0.01267  Uiso   1.00
C3     C     0.38500   0.47510   0.33110   0.01267  Uiso   1.00
C4     C     0.38200   0.57930   0.36240   0.01267  Uiso   1.00
C5     C     0.50900   0.64320   0.40400   0.01267  Uiso   1.00
C6     C     0.63700   0.61200   0.40930   0.01267  Uiso   1.00
C7     C     0.90070   0.49740   0.27350   0.01267  Uiso   1.00
C8     C     0.91200   0.60060   0.25670   0.01267  Uiso   1.00
C9     C     0.00500   0.62280   0.18090   0.01267  Uiso   1.00
C10    C     0.06000   0.55100   0.12880   0.01267  Uiso   1.00
C11    C     0.04100   0.45700   0.14350   0.01267  Uiso   1.00
C12    C     0.95300   0.42730   0.21570   0.01267  Uiso   1.00
C13    C     0.93100   0.52090   0.49280   0.01267  Uiso   1.00
C14    C     0.85800   0.12790   0.98910   0.01267  Uiso   1.00
C15    C     0.86000   0.09380   0.88840   0.01267  Uiso   1.00
C16    C     0.99500   0.09500   0.85560   0.01267  Uiso   1.00
C17    C     0.12400   0.13790   0.92200   0.01267  Uiso   1.00
C18    C     0.11800   0.16780   0.02530   0.01267  Uiso   1.00
C19    C     0.98500   0.16250   0.05780   0.01267  Uiso   1.00
C20    C     0.59790   0.22740   0.00170   0.01267  Uiso   1.00
C21    C     0.54900   0.28660   0.07470   0.01267  Uiso   1.00
C22    C     0.46600   0.35690   0.04300   0.01267  Uiso   1.00
C23    C     0.44200   0.36910   0.94400   0.01267  Uiso   1.00
C24    C     0.49200   0.31620   0.87340   0.01267  Uiso   1.00
C25    C     0.58900   0.24280   0.90020   0.01267  Uiso   1.00
C26    C     0.57100   0.00680   0.97960   0.01267  Uiso   1.00
C27    C     0.35670   0.48820   0.62770   0.01267  Uiso   1.00
C28    C     0.48750   0.55740   0.66400   0.01267  Uiso   1.00
C29    C     0.61500   0.52490   0.66890   0.01267  Uiso   1.00
C30    C     0.61800   0.42070   0.63760   0.01267  Uiso   1.00
C31    C     0.49100   0.35680   0.59600   0.01267  Uiso   1.00
C32    C     0.36300   0.38800   0.59070   0.01267  Uiso   1.00
C33    C     0.09930   0.50260   0.72650   0.01267  Uiso   1.00
C34    C     0.08800   0.39940   0.74330   0.01267  Uiso   1.00
C35    C     0.99500   0.37720   0.81910   0.01267  Uiso   1.00
C36    C     0.94000   0.44900   0.87120   0.01267  Uiso   1.00
C37    C     0.95900   0.54300   0.85650   0.01267  Uiso   1.00
C38    C     0.04700   0.57270   0.78430   0.01267  Uiso   1.00
C39    C     0.06900   0.47910   0.50720   0.01267  Uiso   1.00
C40    C     0.14200   0.87210   0.01090   0.01267  Uiso   1.00
C41    C     0.14000   0.90620   0.11160   0.01267  Uiso   1.00
C42    C     0.00500   0.90500   0.14440   0.01267  Uiso   1.00
C43    C     0.87600   0.86210   0.07800   0.01267  Uiso   1.00
C44    C     0.88200   0.83220   0.97470   0.01267  Uiso   1.00
C45    C     0.01500   0.83750   0.94220   0.01267  Uiso   1.00
C46    C     0.40210   0.77260   0.99830   0.01267  Uiso   1.00
C47    C     0.45100   0.71340   0.92530   0.01267  Uiso   1.00
C48    C     0.53400   0.64310   0.95700   0.01267  Uiso   1.00
C49    C     0.55800   0.63090   0.05600   0.01267  Uiso   1.00
C50    C     0.50800   0.68380   0.12660   0.01267  Uiso   1.00
C51    C     0.41100   0.75720   0.09980   0.01267  Uiso   1.00
C52    C     0.42900   0.99320   0.02040   0.01267  Uiso   1.00
I1     I     0.42170   0.13081   0.32265   0.01267  Uiso   1.00
I2     I     0.07840   0.17756   0.36942   0.01267  Uiso   1.00
I3     I     0.57830   0.86919   0.67735   0.01267  Uiso   1.00
I4     I     0.92160   0.82244   0.63058   0.01267  Uiso   1.00
O1     O     0.78070   0.34450   0.36640   0.01267  Uiso   1.00
O2     O     0.71740   0.13410   0.15610   0.01267  Uiso   1.00
O3     O     0.21930   0.65550   0.63360   0.01267  Uiso   1.00
O4     O     0.28260   0.86590   0.84390   0.01267  Uiso   1.00
