data_FIPWUY_clean
_audit_creation_date              2014-07-02
_audit_creation_method            'Materials Studio'
_symmetry_space_group_name_H-M    'P1'
_symmetry_Int_Tables_number       1
_symmetry_cell_setting            triclinic
loop_
_symmetry_equiv_pos_as_xyz
  x,y,z
_cell_length_a                    9.1980
_cell_length_b                    9.3300
_cell_length_c                    9.6360
_cell_angle_alpha                 90.0000
_cell_angle_beta                  118.4800
_cell_angle_gamma                 90.0000
loop_
_atom_site_label
_atom_site_type_symbol
_atom_site_fract_x
_atom_site_fract_y
_atom_site_fract_z
_atom_site_U_iso_or_equiv
_atom_site_adp_type
_atom_site_occupancy
Zn1    Zn    0.91601   0.44079   0.13712   0.01267  Uiso   1.00
Zn2    Zn    0.08399   0.94079   0.86288   0.01267  Uiso   1.00
H1     H     0.63510   0.50880   0.07000   0.01267  Uiso   1.00
H2     H     0.66310   0.36690   0.13780   0.01267  Uiso   1.00
H3     H     0.03520   0.74360   0.09290   0.01267  Uiso   1.00
H4     H     0.82730   0.57150   0.52940   0.01267  Uiso   1.00
H5     H     0.85120   0.73800   0.54310   0.01267  Uiso   1.00
H6     H     0.10580   0.43210   0.65620   0.01267  Uiso   1.00
H7     H     0.83800   0.44800   0.77240   0.01267  Uiso   1.00
H8     H     0.12860   0.71910   0.62420   0.01267  Uiso   1.00
H9     H     0.33070   0.28860   0.78540   0.01267  Uiso   1.00
H10    H     0.36340   0.34940   0.94970   0.01267  Uiso   1.00
H11    H     0.58250   0.41410   0.83810   0.01267  Uiso   1.00
H12    H     0.59530   0.26440   0.91500   0.01267  Uiso   1.00
H13    H     0.36490   0.00880   0.93000   0.01267  Uiso   1.00
H14    H     0.33690   0.86690   0.86220   0.01267  Uiso   1.00
H15    H     0.96480   0.24360   0.90710   0.01267  Uiso   1.00
H16    H     0.17270   0.07150   0.47060   0.01267  Uiso   1.00
H17    H     0.14880   0.23800   0.45690   0.01267  Uiso   1.00
H18    H     0.89420   0.93210   0.34380   0.01267  Uiso   1.00
H19    H     0.16200   0.94800   0.22760   0.01267  Uiso   1.00
H20    H     0.87140   0.21910   0.37580   0.01267  Uiso   1.00
H21    H     0.66930   0.78860   0.21460   0.01267  Uiso   1.00
H22    H     0.63660   0.84940   0.05030   0.01267  Uiso   1.00
H23    H     0.41750   0.91410   0.16190   0.01267  Uiso   1.00
H24    H     0.40470   0.76440   0.08500   0.01267  Uiso   1.00
C1     C     0.99400   0.69490   0.99730   0.01267  Uiso   1.00
C2     C     0.90230   0.64750   0.59110   0.01267  Uiso   1.00
C3     C     0.88610   0.53360   0.82260   0.01267  Uiso   1.00
C4     C     0.06310   0.63160   0.58250   0.01267  Uiso   1.00
C5     C     0.01490   0.61830   0.40830   0.01267  Uiso   1.00
C6     C     0.30840   0.50910   0.78350   0.01267  Uiso   1.00
C7     C     0.92330   0.64240   0.75540   0.01267  Uiso   1.00
C8     C     0.38300   0.36540   0.86100   0.01267  Uiso   1.00
C9     C     0.56360   0.36340   0.91590   0.01267  Uiso   1.00
C10    C     0.00600   0.19490   0.00270   0.01267  Uiso   1.00
C11    C     0.09770   0.14750   0.40890   0.01267  Uiso   1.00
C12    C     0.11390   0.03360   0.17740   0.01267  Uiso   1.00
C13    C     0.93690   0.13160   0.41750   0.01267  Uiso   1.00
C14    C     0.98510   0.11830   0.59170   0.01267  Uiso   1.00
C15    C     0.69160   0.00910   0.21650   0.01267  Uiso   1.00
C16    C     0.07670   0.14240   0.24460   0.01267  Uiso   1.00
C17    C     0.61700   0.86540   0.13900   0.01267  Uiso   1.00
C18    C     0.43640   0.86340   0.08410   0.01267  Uiso   1.00
N1     N     0.67300   0.42090   0.06540   0.01267  Uiso   1.00
N2     N     0.99500   0.74990   0.87180   0.01267  Uiso   1.00
N3     N     0.15770   0.51240   0.67570   0.01267  Uiso   1.00
N4     N     0.92880   0.56590   0.97640   0.01267  Uiso   1.00
N5     N     0.32700   0.92090   0.93460   0.01267  Uiso   1.00
N6     N     0.00500   0.24990   0.12820   0.01267  Uiso   1.00
N7     N     0.84230   0.01240   0.32430   0.01267  Uiso   1.00
N8     N     0.07120   0.06590   0.02360   0.01267  Uiso   1.00
O1     O     0.00670   0.49360   0.35660   0.01267  Uiso   1.00
O2     O     0.98820   0.72660   0.32910   0.01267  Uiso   1.00
O3     O     0.38670   0.62730   0.83040   0.01267  Uiso   1.00
O4     O     0.99330   0.99360   0.64340   0.01267  Uiso   1.00
O5     O     0.01180   0.22660   0.67090   0.01267  Uiso   1.00
O6     O     0.61330   0.12730   0.16960   0.01267  Uiso   1.00
