data_FIRVEH_clean
_audit_creation_date              2014-07-02
_audit_creation_method            'Materials Studio'
_symmetry_space_group_name_H-M    'P1'
_symmetry_Int_Tables_number       1
_symmetry_cell_setting            triclinic
loop_
_symmetry_equiv_pos_as_xyz
  x,y,z
_cell_length_a                    7.6750
_cell_length_b                    10.3639
_cell_length_c                    10.3639
_cell_angle_alpha                 82.1197
_cell_angle_beta                  68.2674
_cell_angle_gamma                 68.2674
loop_
_atom_site_label
_atom_site_type_symbol
_atom_site_fract_x
_atom_site_fract_y
_atom_site_fract_z
_atom_site_U_iso_or_equiv
_atom_site_adp_type
_atom_site_occupancy
Ca1    Ca    0.12500   0.44070   0.05930   0.01267  Uiso   1.00
Ca2    Ca    0.62500   0.55930   0.94070   0.01267  Uiso   1.00
Ca3    Ca    0.81570   0.05930   0.55930   0.01267  Uiso   1.00
Ca4    Ca    0.43430   0.94070   0.44070   0.01267  Uiso   1.00
C1     C     0.22610   0.65680   0.82720   0.01267  Uiso   1.00
C2     C     0.05220   0.71940   0.23740   0.01267  Uiso   1.00
C3     C     0.71010   0.34320   0.17280   0.01267  Uiso   1.00
C4     C     0.00900   0.28060   0.76260   0.01267  Uiso   1.00
C5     C     0.94670   0.82720   0.34320   0.01267  Uiso   1.00
C6     C     0.71040   0.23740   0.28060   0.01267  Uiso   1.00
C7     C     0.11710   0.17280   0.65680   0.01267  Uiso   1.00
C8     C     0.22840   0.76260   0.71940   0.01267  Uiso   1.00
C9     C     0.53990   0.32720   0.15680   0.01267  Uiso   1.00
C10    C     0.24100   0.73740   0.21940   0.01267  Uiso   1.00
C11    C     0.02390   0.67280   0.84320   0.01267  Uiso   1.00
C12    C     0.19780   0.26260   0.78060   0.01267  Uiso   1.00
C13    C     0.13290   0.84320   0.32720   0.01267  Uiso   1.00
C14    C     0.02160   0.78060   0.73740   0.01267  Uiso   1.00
C15    C     0.30330   0.15680   0.67280   0.01267  Uiso   1.00
C16    C     0.53960   0.21940   0.26260   0.01267  Uiso   1.00
O1     O     0.34040   0.57820   0.88780   0.01267  Uiso   1.00
O2     O     0.00100   0.64500   0.18420   0.01267  Uiso   1.00
O3     O     0.80640   0.42180   0.11220   0.01267  Uiso   1.00
O4     O     0.83020   0.35500   0.81580   0.01267  Uiso   1.00
O5     O     0.77180   0.88780   0.42180   0.01267  Uiso   1.00
O6     O     0.81480   0.18420   0.35500   0.01267  Uiso   1.00
O7     O     0.08140   0.11220   0.57820   0.01267  Uiso   1.00
O8     O     0.35400   0.81580   0.64500   0.01267  Uiso   1.00
O9     O     0.44360   0.38780   0.07820   0.01267  Uiso   1.00
O10    O     0.41980   0.68420   0.14500   0.01267  Uiso   1.00
O11    O     0.90960   0.61220   0.92180   0.01267  Uiso   1.00
O12    O     0.24900   0.31580   0.85500   0.01267  Uiso   1.00
O13    O     0.16860   0.92180   0.38780   0.01267  Uiso   1.00
O14    O     0.89600   0.85500   0.68420   0.01267  Uiso   1.00
O15    O     0.47820   0.07820   0.61220   0.01267  Uiso   1.00
O16    O     0.43520   0.14500   0.31580   0.01267  Uiso   1.00
