data_FORWAL_charged
_audit_creation_date              2014-07-02
_audit_creation_method            'Materials Studio'
_symmetry_space_group_name_H-M    'P1'
_symmetry_Int_Tables_number       1
_symmetry_cell_setting            triclinic
loop_
_symmetry_equiv_pos_as_xyz
  x,y,z
_cell_length_a                    15.6019
_cell_length_b                    15.6019
_cell_length_c                    15.6019
_cell_angle_alpha                 90.0000
_cell_angle_beta                  90.0000
_cell_angle_gamma                 90.0000
loop_
_atom_site_label
_atom_site_type_symbol
_atom_site_fract_x
_atom_site_fract_y
_atom_site_fract_z
_atom_site_U_iso_or_equiv
_atom_site_adp_type
_atom_site_occupancy
Na1    Na    0.69783   0.80217   0.19783   0.01267  Uiso   1.00
Na2    Na    0.80217   0.19783   0.69783   0.01267  Uiso   1.00
Na3    Na    0.30217   0.30217   0.30217   0.01267  Uiso   1.00
Na4    Na    0.19783   0.69783   0.80217   0.01267  Uiso   1.00
Fe1    Fe    0.60242   0.39758   0.89758   0.01267  Uiso   1.00
Fe2    Fe    0.89758   0.60242   0.39758   0.01267  Uiso   1.00
Fe3    Fe    0.39758   0.89758   0.60242   0.01267  Uiso   1.00
Fe4    Fe    0.10242   0.10242   0.10242   0.01267  Uiso   1.00
H1     H     0.78790   0.61350   0.97360   0.01267  Uiso   1.00
H2     H     0.69740   0.60860   0.93020   0.01267  Uiso   1.00
H3     H     0.62910   0.61960   0.06360   0.01267  Uiso   1.00
H4     H     0.79530   0.62780   0.13740   0.01267  Uiso   1.00
H5     H     0.77070   0.49420   0.20000   0.01267  Uiso   1.00
H6     H     0.83960   0.48850   0.06620   0.01267  Uiso   1.00
H7     H     0.78060   0.40730   0.07500   0.01267  Uiso   1.00
H8     H     0.63150   0.46000   0.04230   0.01267  Uiso   1.00
H9     H     0.67910   0.74470   0.00930   0.01267  Uiso   1.00
H10    H     0.71560   0.62910   0.25650   0.01267  Uiso   1.00
H11    H     0.63110   0.46570   0.11180   0.01267  Uiso   1.00
H12    H     0.71210   0.38650   0.47360   0.01267  Uiso   1.00
H13    H     0.80260   0.39140   0.43020   0.01267  Uiso   1.00
H14    H     0.87090   0.38040   0.56360   0.01267  Uiso   1.00
H15    H     0.70470   0.37220   0.63740   0.01267  Uiso   1.00
H16    H     0.72930   0.50580   0.70000   0.01267  Uiso   1.00
H17    H     0.66040   0.51150   0.56620   0.01267  Uiso   1.00
H18    H     0.71940   0.59270   0.57500   0.01267  Uiso   1.00
H19    H     0.86850   0.54000   0.54230   0.01267  Uiso   1.00
H20    H     0.82090   0.25530   0.50930   0.01267  Uiso   1.00
H21    H     0.78440   0.37090   0.75650   0.01267  Uiso   1.00
H22    H     0.86890   0.53430   0.61180   0.01267  Uiso   1.00
H23    H     0.21210   0.11350   0.52640   0.01267  Uiso   1.00
H24    H     0.30260   0.10860   0.56980   0.01267  Uiso   1.00
H25    H     0.37090   0.11960   0.43640   0.01267  Uiso   1.00
H26    H     0.20470   0.12780   0.36260   0.01267  Uiso   1.00
H27    H     0.22930   0.99420   0.30000   0.01267  Uiso   1.00
H28    H     0.16040   0.98850   0.43380   0.01267  Uiso   1.00
H29    H     0.21940   0.90730   0.42500   0.01267  Uiso   1.00
H30    H     0.36850   0.96000   0.45770   0.01267  Uiso   1.00
H31    H     0.32090   0.24470   0.49070   0.01267  Uiso   1.00
H32    H     0.28440   0.12910   0.24350   0.01267  Uiso   1.00
H33    H     0.36890   0.96570   0.38820   0.01267  Uiso   1.00
H34    H     0.28790   0.88650   0.02640   0.01267  Uiso   1.00
H35    H     0.19740   0.89140   0.06980   0.01267  Uiso   1.00
H36    H     0.12910   0.88040   0.93640   0.01267  Uiso   1.00
H37    H     0.29530   0.87220   0.86260   0.01267  Uiso   1.00
H38    H     0.27070   0.00580   0.80000   0.01267  Uiso   1.00
H39    H     0.33960   0.01150   0.93380   0.01267  Uiso   1.00
H40    H     0.28060   0.09270   0.92500   0.01267  Uiso   1.00
H41    H     0.13150   0.04000   0.95770   0.01267  Uiso   1.00
H42    H     0.17910   0.75530   0.99070   0.01267  Uiso   1.00
H43    H     0.21560   0.87090   0.74350   0.01267  Uiso   1.00
H44    H     0.13110   0.03430   0.88820   0.01267  Uiso   1.00
H45    H     0.97360   0.78790   0.61350   0.01267  Uiso   1.00
H46    H     0.93020   0.69740   0.60860   0.01267  Uiso   1.00
H47    H     0.06360   0.62910   0.61960   0.01267  Uiso   1.00
H48    H     0.13740   0.79530   0.62780   0.01267  Uiso   1.00
H49    H     0.20000   0.77070   0.49420   0.01267  Uiso   1.00
H50    H     0.06620   0.83960   0.48850   0.01267  Uiso   1.00
H51    H     0.07500   0.78060   0.40730   0.01267  Uiso   1.00
H52    H     0.04230   0.63150   0.46000   0.01267  Uiso   1.00
H53    H     0.00930   0.67910   0.74470   0.01267  Uiso   1.00
H54    H     0.25650   0.71560   0.62910   0.01267  Uiso   1.00
H55    H     0.11180   0.63110   0.46570   0.01267  Uiso   1.00
H56    H     0.47360   0.71210   0.38650   0.01267  Uiso   1.00
H57    H     0.43020   0.80260   0.39140   0.01267  Uiso   1.00
H58    H     0.56360   0.87090   0.38040   0.01267  Uiso   1.00
H59    H     0.63740   0.70470   0.37220   0.01267  Uiso   1.00
H60    H     0.70000   0.72930   0.50580   0.01267  Uiso   1.00
H61    H     0.56620   0.66040   0.51150   0.01267  Uiso   1.00
H62    H     0.57500   0.71940   0.59270   0.01267  Uiso   1.00
H63    H     0.54230   0.86850   0.54000   0.01267  Uiso   1.00
H64    H     0.50930   0.82090   0.25530   0.01267  Uiso   1.00
H65    H     0.75650   0.78440   0.37090   0.01267  Uiso   1.00
H66    H     0.61180   0.86890   0.53430   0.01267  Uiso   1.00
H67    H     0.52640   0.21210   0.11350   0.01267  Uiso   1.00
H68    H     0.56980   0.30260   0.10860   0.01267  Uiso   1.00
H69    H     0.43640   0.37090   0.11960   0.01267  Uiso   1.00
H70    H     0.36260   0.20470   0.12780   0.01267  Uiso   1.00
H71    H     0.30000   0.22930   0.99420   0.01267  Uiso   1.00
H72    H     0.43380   0.16040   0.98850   0.01267  Uiso   1.00
H73    H     0.42500   0.21940   0.90730   0.01267  Uiso   1.00
H74    H     0.45770   0.36850   0.96000   0.01267  Uiso   1.00
H75    H     0.49070   0.32090   0.24470   0.01267  Uiso   1.00
H76    H     0.24350   0.28440   0.12910   0.01267  Uiso   1.00
H77    H     0.38820   0.36890   0.96570   0.01267  Uiso   1.00
H78    H     0.02640   0.28790   0.88650   0.01267  Uiso   1.00
H79    H     0.06980   0.19740   0.89140   0.01267  Uiso   1.00
H80    H     0.93640   0.12910   0.88040   0.01267  Uiso   1.00
H81    H     0.86260   0.29530   0.87220   0.01267  Uiso   1.00
H82    H     0.80000   0.27070   0.00580   0.01267  Uiso   1.00
H83    H     0.93380   0.33960   0.01150   0.01267  Uiso   1.00
H84    H     0.92500   0.28060   0.09270   0.01267  Uiso   1.00
H85    H     0.95770   0.13150   0.04000   0.01267  Uiso   1.00
H86    H     0.99070   0.17910   0.75530   0.01267  Uiso   1.00
H87    H     0.74350   0.21560   0.87090   0.01267  Uiso   1.00
H88    H     0.88820   0.13110   0.03430   0.01267  Uiso   1.00
H89    H     0.61350   0.97360   0.78790   0.01267  Uiso   1.00
H90    H     0.60860   0.93020   0.69740   0.01267  Uiso   1.00
H91    H     0.61960   0.06360   0.62910   0.01267  Uiso   1.00
H92    H     0.62780   0.13740   0.79530   0.01267  Uiso   1.00
H93    H     0.49420   0.20000   0.77070   0.01267  Uiso   1.00
H94    H     0.48850   0.06620   0.83960   0.01267  Uiso   1.00
H95    H     0.40730   0.07500   0.78060   0.01267  Uiso   1.00
H96    H     0.46000   0.04230   0.63150   0.01267  Uiso   1.00
H97    H     0.74470   0.00930   0.67910   0.01267  Uiso   1.00
H98    H     0.62910   0.25650   0.71560   0.01267  Uiso   1.00
H99    H     0.46570   0.11180   0.63110   0.01267  Uiso   1.00
H100   H     0.38650   0.47360   0.71210   0.01267  Uiso   1.00
H101   H     0.39140   0.43020   0.80260   0.01267  Uiso   1.00
H102   H     0.38040   0.56360   0.87090   0.01267  Uiso   1.00
H103   H     0.37220   0.63740   0.70470   0.01267  Uiso   1.00
H104   H     0.50580   0.70000   0.72930   0.01267  Uiso   1.00
H105   H     0.51150   0.56620   0.66040   0.01267  Uiso   1.00
H106   H     0.59270   0.57500   0.71940   0.01267  Uiso   1.00
H107   H     0.54000   0.54230   0.86850   0.01267  Uiso   1.00
H108   H     0.25530   0.50930   0.82090   0.01267  Uiso   1.00
H109   H     0.37090   0.75650   0.78440   0.01267  Uiso   1.00
H110   H     0.53430   0.61180   0.86890   0.01267  Uiso   1.00
H111   H     0.11350   0.52640   0.21210   0.01267  Uiso   1.00
H112   H     0.10860   0.56980   0.30260   0.01267  Uiso   1.00
H113   H     0.11960   0.43640   0.37090   0.01267  Uiso   1.00
H114   H     0.12780   0.36260   0.20470   0.01267  Uiso   1.00
H115   H     0.99420   0.30000   0.22930   0.01267  Uiso   1.00
H116   H     0.98850   0.43380   0.16040   0.01267  Uiso   1.00
H117   H     0.90730   0.42500   0.21940   0.01267  Uiso   1.00
H118   H     0.96000   0.45770   0.36850   0.01267  Uiso   1.00
H119   H     0.24470   0.49070   0.32090   0.01267  Uiso   1.00
H120   H     0.12910   0.24350   0.28440   0.01267  Uiso   1.00
H121   H     0.96570   0.38820   0.36890   0.01267  Uiso   1.00
H122   H     0.88650   0.02640   0.28790   0.01267  Uiso   1.00
H123   H     0.89140   0.06980   0.19740   0.01267  Uiso   1.00
H124   H     0.88040   0.93640   0.12910   0.01267  Uiso   1.00
H125   H     0.87220   0.86260   0.29530   0.01267  Uiso   1.00
H126   H     0.00580   0.80000   0.27070   0.01267  Uiso   1.00
H127   H     0.01150   0.93380   0.33960   0.01267  Uiso   1.00
H128   H     0.09270   0.92500   0.28060   0.01267  Uiso   1.00
H129   H     0.04000   0.95770   0.13150   0.01267  Uiso   1.00
H130   H     0.75530   0.99070   0.17910   0.01267  Uiso   1.00
H131   H     0.87090   0.74350   0.21560   0.01267  Uiso   1.00
H132   H     0.03430   0.88820   0.13110   0.01267  Uiso   1.00
C1     C     0.73130   0.49630   0.98850   0.01267  Uiso   1.00
C2     C     0.72970   0.59270   0.98080   0.01267  Uiso   1.00
C3     C     0.68960   0.63600   0.05950   0.01267  Uiso   1.00
C4     C     0.73610   0.60710   0.13990   0.01267  Uiso   1.00
C5     C     0.73740   0.50930   0.14890   0.01267  Uiso   1.00
C6     C     0.78060   0.46930   0.06990   0.01267  Uiso   1.00
C7     C     0.77650   0.45940   0.90780   0.01267  Uiso   1.00
C8     C     0.76870   0.50370   0.48850   0.01267  Uiso   1.00
C9     C     0.77030   0.40730   0.48080   0.01267  Uiso   1.00
C10    C     0.81040   0.36400   0.55950   0.01267  Uiso   1.00
C11    C     0.76390   0.39290   0.63990   0.01267  Uiso   1.00
C12    C     0.76260   0.49070   0.64890   0.01267  Uiso   1.00
C13    C     0.71940   0.53070   0.56990   0.01267  Uiso   1.00
C14    C     0.72350   0.54060   0.40780   0.01267  Uiso   1.00
C15    C     0.26870   0.99630   0.51150   0.01267  Uiso   1.00
C16    C     0.27030   0.09270   0.51920   0.01267  Uiso   1.00
C17    C     0.31040   0.13600   0.44050   0.01267  Uiso   1.00
C18    C     0.26390   0.10710   0.36010   0.01267  Uiso   1.00
C19    C     0.26260   0.00930   0.35110   0.01267  Uiso   1.00
C20    C     0.21940   0.96930   0.43010   0.01267  Uiso   1.00
C21    C     0.22350   0.95940   0.59220   0.01267  Uiso   1.00
C22    C     0.23130   0.00370   0.01150   0.01267  Uiso   1.00
C23    C     0.22970   0.90730   0.01920   0.01267  Uiso   1.00
C24    C     0.18960   0.86400   0.94050   0.01267  Uiso   1.00
C25    C     0.23610   0.89290   0.86010   0.01267  Uiso   1.00
C26    C     0.23740   0.99070   0.85110   0.01267  Uiso   1.00
C27    C     0.28060   0.03070   0.93010   0.01267  Uiso   1.00
C28    C     0.27650   0.04060   0.09220   0.01267  Uiso   1.00
C29    C     0.98850   0.73130   0.49630   0.01267  Uiso   1.00
C30    C     0.98080   0.72970   0.59270   0.01267  Uiso   1.00
C31    C     0.05950   0.68960   0.63600   0.01267  Uiso   1.00
C32    C     0.13990   0.73610   0.60710   0.01267  Uiso   1.00
C33    C     0.14890   0.73740   0.50930   0.01267  Uiso   1.00
C34    C     0.06990   0.78060   0.46930   0.01267  Uiso   1.00
C35    C     0.90780   0.77650   0.45940   0.01267  Uiso   1.00
C36    C     0.48850   0.76870   0.50370   0.01267  Uiso   1.00
C37    C     0.48080   0.77030   0.40730   0.01267  Uiso   1.00
C38    C     0.55950   0.81040   0.36400   0.01267  Uiso   1.00
C39    C     0.63990   0.76390   0.39290   0.01267  Uiso   1.00
C40    C     0.64890   0.76260   0.49070   0.01267  Uiso   1.00
C41    C     0.56990   0.71940   0.53070   0.01267  Uiso   1.00
C42    C     0.40780   0.72350   0.54060   0.01267  Uiso   1.00
C43    C     0.51150   0.26870   0.99630   0.01267  Uiso   1.00
C44    C     0.51920   0.27030   0.09270   0.01267  Uiso   1.00
C45    C     0.44050   0.31040   0.13600   0.01267  Uiso   1.00
C46    C     0.36010   0.26390   0.10710   0.01267  Uiso   1.00
C47    C     0.35110   0.26260   0.00930   0.01267  Uiso   1.00
C48    C     0.43010   0.21940   0.96930   0.01267  Uiso   1.00
C49    C     0.59220   0.22350   0.95940   0.01267  Uiso   1.00
C50    C     0.01150   0.23130   0.00370   0.01267  Uiso   1.00
C51    C     0.01920   0.22970   0.90730   0.01267  Uiso   1.00
C52    C     0.94050   0.18960   0.86400   0.01267  Uiso   1.00
C53    C     0.86010   0.23610   0.89290   0.01267  Uiso   1.00
C54    C     0.85110   0.23740   0.99070   0.01267  Uiso   1.00
C55    C     0.93010   0.28060   0.03070   0.01267  Uiso   1.00
C56    C     0.09220   0.27650   0.04060   0.01267  Uiso   1.00
C57    C     0.49630   0.98850   0.73130   0.01267  Uiso   1.00
C58    C     0.59270   0.98080   0.72970   0.01267  Uiso   1.00
C59    C     0.63600   0.05950   0.68960   0.01267  Uiso   1.00
C60    C     0.60710   0.13990   0.73610   0.01267  Uiso   1.00
C61    C     0.50930   0.14890   0.73740   0.01267  Uiso   1.00
C62    C     0.46930   0.06990   0.78060   0.01267  Uiso   1.00
C63    C     0.45940   0.90780   0.77650   0.01267  Uiso   1.00
C64    C     0.50370   0.48850   0.76870   0.01267  Uiso   1.00
C65    C     0.40730   0.48080   0.77030   0.01267  Uiso   1.00
C66    C     0.36400   0.55950   0.81040   0.01267  Uiso   1.00
C67    C     0.39290   0.63990   0.76390   0.01267  Uiso   1.00
C68    C     0.49070   0.64890   0.76260   0.01267  Uiso   1.00
C69    C     0.53070   0.56990   0.71940   0.01267  Uiso   1.00
C70    C     0.54060   0.40780   0.72350   0.01267  Uiso   1.00
C71    C     0.99630   0.51150   0.26870   0.01267  Uiso   1.00
C72    C     0.09270   0.51920   0.27030   0.01267  Uiso   1.00
C73    C     0.13600   0.44050   0.31040   0.01267  Uiso   1.00
C74    C     0.10710   0.36010   0.26390   0.01267  Uiso   1.00
C75    C     0.00930   0.35110   0.26260   0.01267  Uiso   1.00
C76    C     0.96930   0.43010   0.21940   0.01267  Uiso   1.00
C77    C     0.95940   0.59220   0.22350   0.01267  Uiso   1.00
C78    C     0.00370   0.01150   0.23130   0.01267  Uiso   1.00
C79    C     0.90730   0.01920   0.22970   0.01267  Uiso   1.00
C80    C     0.86400   0.94050   0.18960   0.01267  Uiso   1.00
C81    C     0.89290   0.86010   0.23610   0.01267  Uiso   1.00
C82    C     0.99070   0.85110   0.23740   0.01267  Uiso   1.00
C83    C     0.03070   0.93010   0.28060   0.01267  Uiso   1.00
C84    C     0.04060   0.09220   0.27650   0.01267  Uiso   1.00
O1     O     0.64730   0.46240   0.99220   0.01267  Uiso   1.00
O2     O     0.72840   0.41600   0.85810   0.01267  Uiso   1.00
O3     O     0.85350   0.47320   0.89600   0.01267  Uiso   1.00
O4     O     0.69600   0.72770   0.05610   0.01267  Uiso   1.00
O5     O     0.69410   0.64660   0.21190   0.01267  Uiso   1.00
O6     O     0.65120   0.47690   0.15900   0.01267  Uiso   1.00
O7     O     0.85270   0.53760   0.49220   0.01267  Uiso   1.00
O8     O     0.77160   0.58400   0.35810   0.01267  Uiso   1.00
O9     O     0.64650   0.52680   0.39600   0.01267  Uiso   1.00
O10    O     0.80400   0.27230   0.55610   0.01267  Uiso   1.00
O11    O     0.80590   0.35340   0.71190   0.01267  Uiso   1.00
O12    O     0.84880   0.52310   0.65900   0.01267  Uiso   1.00
O13    O     0.35270   0.96240   0.50780   0.01267  Uiso   1.00
O14    O     0.27160   0.91600   0.64190   0.01267  Uiso   1.00
O15    O     0.14650   0.97320   0.60400   0.01267  Uiso   1.00
O16    O     0.30400   0.22770   0.44390   0.01267  Uiso   1.00
O17    O     0.30590   0.14660   0.28810   0.01267  Uiso   1.00
O18    O     0.34880   0.97690   0.34100   0.01267  Uiso   1.00
O19    O     0.14730   0.03760   0.00780   0.01267  Uiso   1.00
O20    O     0.22840   0.08400   0.14190   0.01267  Uiso   1.00
O21    O     0.35350   0.02680   0.10400   0.01267  Uiso   1.00
O22    O     0.19600   0.77230   0.94390   0.01267  Uiso   1.00
O23    O     0.19410   0.85340   0.78810   0.01267  Uiso   1.00
O24    O     0.15120   0.02310   0.84100   0.01267  Uiso   1.00
O25    O     0.99220   0.64730   0.46240   0.01267  Uiso   1.00
O26    O     0.85810   0.72840   0.41600   0.01267  Uiso   1.00
O27    O     0.89600   0.85350   0.47320   0.01267  Uiso   1.00
O28    O     0.05610   0.69600   0.72770   0.01267  Uiso   1.00
O29    O     0.21190   0.69410   0.64660   0.01267  Uiso   1.00
O30    O     0.15900   0.65120   0.47690   0.01267  Uiso   1.00
O31    O     0.49220   0.85270   0.53760   0.01267  Uiso   1.00
O32    O     0.35810   0.77160   0.58400   0.01267  Uiso   1.00
O33    O     0.39600   0.64650   0.52680   0.01267  Uiso   1.00
O34    O     0.55610   0.80400   0.27230   0.01267  Uiso   1.00
O35    O     0.71190   0.80590   0.35340   0.01267  Uiso   1.00
O36    O     0.65900   0.84880   0.52310   0.01267  Uiso   1.00
O37    O     0.50780   0.35270   0.96240   0.01267  Uiso   1.00
O38    O     0.64190   0.27160   0.91600   0.01267  Uiso   1.00
O39    O     0.60400   0.14650   0.97320   0.01267  Uiso   1.00
O40    O     0.44390   0.30400   0.22770   0.01267  Uiso   1.00
O41    O     0.28810   0.30590   0.14660   0.01267  Uiso   1.00
O42    O     0.34100   0.34880   0.97690   0.01267  Uiso   1.00
O43    O     0.00780   0.14730   0.03760   0.01267  Uiso   1.00
O44    O     0.14190   0.22840   0.08400   0.01267  Uiso   1.00
O45    O     0.10400   0.35350   0.02680   0.01267  Uiso   1.00
O46    O     0.94390   0.19600   0.77230   0.01267  Uiso   1.00
O47    O     0.78810   0.19410   0.85340   0.01267  Uiso   1.00
O48    O     0.84100   0.15120   0.02310   0.01267  Uiso   1.00
O49    O     0.46240   0.99220   0.64730   0.01267  Uiso   1.00
O50    O     0.41600   0.85810   0.72840   0.01267  Uiso   1.00
O51    O     0.47320   0.89600   0.85350   0.01267  Uiso   1.00
O52    O     0.72770   0.05610   0.69600   0.01267  Uiso   1.00
O53    O     0.64660   0.21190   0.69410   0.01267  Uiso   1.00
O54    O     0.47690   0.15900   0.65120   0.01267  Uiso   1.00
O55    O     0.53760   0.49220   0.85270   0.01267  Uiso   1.00
O56    O     0.58400   0.35810   0.77160   0.01267  Uiso   1.00
O57    O     0.52680   0.39600   0.64650   0.01267  Uiso   1.00
O58    O     0.27230   0.55610   0.80400   0.01267  Uiso   1.00
O59    O     0.35340   0.71190   0.80590   0.01267  Uiso   1.00
O60    O     0.52310   0.65900   0.84880   0.01267  Uiso   1.00
O61    O     0.96240   0.50780   0.35270   0.01267  Uiso   1.00
O62    O     0.91600   0.64190   0.27160   0.01267  Uiso   1.00
O63    O     0.97320   0.60400   0.14650   0.01267  Uiso   1.00
O64    O     0.22770   0.44390   0.30400   0.01267  Uiso   1.00
O65    O     0.14660   0.28810   0.30590   0.01267  Uiso   1.00
O66    O     0.97690   0.34100   0.34880   0.01267  Uiso   1.00
O67    O     0.03760   0.00780   0.14730   0.01267  Uiso   1.00
O68    O     0.08400   0.14190   0.22840   0.01267  Uiso   1.00
O69    O     0.02680   0.10400   0.35350   0.01267  Uiso   1.00
O70    O     0.77230   0.94390   0.19600   0.01267  Uiso   1.00
O71    O     0.85340   0.78810   0.19410   0.01267  Uiso   1.00
O72    O     0.02310   0.84100   0.15120   0.01267  Uiso   1.00
