data_FUDQIF_clean
_audit_creation_date              2014-07-02
_audit_creation_method            'Materials Studio'
_symmetry_space_group_name_H-M    'P1'
_symmetry_Int_Tables_number       1
_symmetry_cell_setting            triclinic
loop_
_symmetry_equiv_pos_as_xyz
  x,y,z
_cell_length_a                    7.1409
_cell_length_b                    7.1409
_cell_length_c                    7.6068
_cell_angle_alpha                 90.0000
_cell_angle_beta                  90.0000
_cell_angle_gamma                 90.0000
loop_
_atom_site_label
_atom_site_type_symbol
_atom_site_fract_x
_atom_site_fract_y
_atom_site_fract_z
_atom_site_U_iso_or_equiv
_atom_site_adp_type
_atom_site_occupancy
Zn1    Zn    0.50000   0.50000   0.50000   0.01267  Uiso   1.00
Si1    Si    0.50000   0.50000   0.00000   0.01267  Uiso   1.00
H1     H     0.50000   0.83860   0.75150   0.01267  Uiso   1.00
H2     H     0.50000   0.16140   0.75150   0.01267  Uiso   1.00
H3     H     0.16140   0.50000   0.75150   0.01267  Uiso   1.00
H4     H     0.83860   0.50000   0.75150   0.01267  Uiso   1.00
H5     H     0.50000   0.83860   0.24850   0.01267  Uiso   1.00
H6     H     0.50000   0.16140   0.24850   0.01267  Uiso   1.00
H7     H     0.83860   0.50000   0.24850   0.01267  Uiso   1.00
H8     H     0.16140   0.50000   0.24850   0.01267  Uiso   1.00
C1     C     0.50000   0.90140   0.64450   0.01267  Uiso   1.00
C2     C     0.50000   0.09860   0.64450   0.01267  Uiso   1.00
C3     C     0.09860   0.50000   0.64450   0.01267  Uiso   1.00
C4     C     0.90140   0.50000   0.64450   0.01267  Uiso   1.00
C5     C     0.50000   0.90140   0.35550   0.01267  Uiso   1.00
C6     C     0.50000   0.09860   0.35550   0.01267  Uiso   1.00
C7     C     0.90140   0.50000   0.35550   0.01267  Uiso   1.00
C8     C     0.09860   0.50000   0.35550   0.01267  Uiso   1.00
N1     N     0.50000   0.80420   0.50000   0.01267  Uiso   1.00
N2     N     0.50000   0.19580   0.50000   0.01267  Uiso   1.00
N3     N     0.19580   0.50000   0.50000   0.01267  Uiso   1.00
N4     N     0.80420   0.50000   0.50000   0.01267  Uiso   1.00
F1     F     0.50000   0.50000   0.77040   0.01267  Uiso   1.00
F2     F     0.50000   0.50000   0.22960   0.01267  Uiso   1.00
F3     F     0.66410   0.66410   0.00000   0.01267  Uiso   1.00
F4     F     0.33590   0.33590   0.00000   0.01267  Uiso   1.00
F5     F     0.33590   0.66410   0.00000   0.01267  Uiso   1.00
F6     F     0.66410   0.33590   0.00000   0.01267  Uiso   1.00
