data_FUNBIA_clean
_audit_creation_date              2014-07-02
_audit_creation_method            'Materials Studio'
_symmetry_space_group_name_H-M    'P1'
_symmetry_Int_Tables_number       1
_symmetry_cell_setting            triclinic
loop_
_symmetry_equiv_pos_as_xyz
  x,y,z
_cell_length_a                    11.6268
_cell_length_b                    15.6540
_cell_length_c                    15.9467
_cell_angle_alpha                 90.0000
_cell_angle_beta                  90.0000
_cell_angle_gamma                 90.0000
loop_
_atom_site_label
_atom_site_type_symbol
_atom_site_fract_x
_atom_site_fract_y
_atom_site_fract_z
_atom_site_U_iso_or_equiv
_atom_site_adp_type
_atom_site_occupancy
Zn1    Zn    0.14197   0.00000   0.57976   0.01267  Uiso   1.00
Zn2    Zn    0.14297   0.00000   0.76191   0.01267  Uiso   1.00
H1     H     0.30710   0.74900   0.56880   0.01267  Uiso   1.00
H2     H     0.58310   0.72180   0.78020   0.01267  Uiso   1.00
H3     H     0.45480   0.83360   0.77720   0.01267  Uiso   1.00
H4     H     0.85640   0.63950   0.79300   0.01267  Uiso   1.00
H5     H     0.98340   0.75090   0.78170   0.01267  Uiso   1.00
H6     H     0.42550   0.63130   0.56930   0.01267  Uiso   1.00
H7     H     0.83260   0.82110   0.56420   0.01267  Uiso   1.00
H8     H     0.70940   0.70490   0.57280   0.01267  Uiso   1.00
H9     H     0.30710   0.25100   0.56880   0.01267  Uiso   1.00
H10    H     0.58310   0.27820   0.78020   0.01267  Uiso   1.00
H11    H     0.45480   0.16640   0.77720   0.01267  Uiso   1.00
H12    H     0.85640   0.36050   0.79300   0.01267  Uiso   1.00
H13    H     0.98340   0.24910   0.78170   0.01267  Uiso   1.00
H14    H     0.42550   0.36870   0.56930   0.01267  Uiso   1.00
H15    H     0.83260   0.17890   0.56420   0.01267  Uiso   1.00
H16    H     0.70940   0.29510   0.57280   0.01267  Uiso   1.00
H17    H     0.32000   0.00000   0.30020   0.01267  Uiso   1.00
H18    H     0.97430   0.00000   0.43560   0.01267  Uiso   1.00
H19    H     0.30990   0.00000   0.44180   0.01267  Uiso   1.00
H20    H     0.97790   0.00000   0.28970   0.01267  Uiso   1.00
H21    H     0.92780   0.00000   0.02810   0.01267  Uiso   1.00
H22    H     0.96210   0.00000   0.88780   0.01267  Uiso   1.00
H23    H     0.28810   0.00000   0.91740   0.01267  Uiso   1.00
H24    H     0.27270   0.00000   0.06120   0.01267  Uiso   1.00
H25    H     0.84180   0.50000   0.67310   0.01267  Uiso   1.00
H26    H     0.44910   0.50000   0.69870   0.01267  Uiso   1.00
C1     C     0.91640   0.80500   0.67290   0.01267  Uiso   1.00
C2     C     0.99140   0.87860   0.67590   0.01267  Uiso   1.00
C3     C     0.37320   0.80180   0.67440   0.01267  Uiso   1.00
C4     C     0.29290   0.88120   0.66730   0.01267  Uiso   1.00
C5     C     0.51530   0.65590   0.67710   0.01267  Uiso   1.00
C6     C     0.77560   0.66210   0.68230   0.01267  Uiso   1.00
C7     C     0.70840   0.57950   0.68030   0.01267  Uiso   1.00
C8     C     0.58990   0.57790   0.68510   0.01267  Uiso   1.00
C9     C     0.36130   0.74180   0.61100   0.01267  Uiso   1.00
C10    C     0.52650   0.72420   0.73910   0.01267  Uiso   1.00
C11    C     0.45110   0.79230   0.73540   0.01267  Uiso   1.00
C12    C     0.85390   0.67590   0.74690   0.01267  Uiso   1.00
C13    C     0.92650   0.74360   0.74130   0.01267  Uiso   1.00
C14    C     0.43200   0.67110   0.61230   0.01267  Uiso   1.00
C15    C     0.83700   0.78550   0.61070   0.01267  Uiso   1.00
C16    C     0.76370   0.71530   0.61430   0.01267  Uiso   1.00
C17    C     0.91640   0.19500   0.67290   0.01267  Uiso   1.00
C18    C     0.99140   0.12140   0.67590   0.01267  Uiso   1.00
C19    C     0.37320   0.19820   0.67440   0.01267  Uiso   1.00
C20    C     0.29290   0.11880   0.66730   0.01267  Uiso   1.00
C21    C     0.51530   0.34410   0.67710   0.01267  Uiso   1.00
C22    C     0.77560   0.33790   0.68230   0.01267  Uiso   1.00
C23    C     0.70840   0.42050   0.68030   0.01267  Uiso   1.00
C24    C     0.58990   0.42210   0.68510   0.01267  Uiso   1.00
C25    C     0.36130   0.25820   0.61100   0.01267  Uiso   1.00
C26    C     0.52650   0.27580   0.73910   0.01267  Uiso   1.00
C27    C     0.45110   0.20770   0.73540   0.01267  Uiso   1.00
C28    C     0.85390   0.32410   0.74690   0.01267  Uiso   1.00
C29    C     0.92650   0.25640   0.74130   0.01267  Uiso   1.00
C30    C     0.43200   0.32890   0.61230   0.01267  Uiso   1.00
C31    C     0.83700   0.21450   0.61070   0.01267  Uiso   1.00
C32    C     0.76370   0.28470   0.61430   0.01267  Uiso   1.00
C33    C     0.09870   0.00000   0.05950   0.01267  Uiso   1.00
C34    C     0.24860   0.00000   0.32650   0.01267  Uiso   1.00
C35    C     0.04470   0.00000   0.40780   0.01267  Uiso   1.00
C36    C     0.24180   0.00000   0.41120   0.01267  Uiso   1.00
C37    C     0.14840   0.00000   0.27890   0.01267  Uiso   1.00
C38    C     0.04650   0.00000   0.31980   0.01267  Uiso   1.00
C39    C     0.00250   0.00000   0.00730   0.01267  Uiso   1.00
C40    C     0.02560   0.00000   0.92320   0.01267  Uiso   1.00
C41    C     0.21450   0.00000   0.94030   0.01267  Uiso   1.00
C42    C     0.20760   0.00000   0.02730   0.01267  Uiso   1.00
C43    C     0.76210   0.50000   0.67740   0.01267  Uiso   1.00
C44    C     0.52840   0.50000   0.69100   0.01267  Uiso   1.00
N1     N     0.14260   0.00000   0.45300   0.01267  Uiso   1.00
N2     N     0.16620   0.00000   0.18910   0.01267  Uiso   1.00
N3     N     0.12730   0.00000   0.88600   0.01267  Uiso   1.00
N4     N     0.07830   0.00000   0.14880   0.01267  Uiso   1.00
O1     O     0.24920   0.90060   0.60370   0.01267  Uiso   1.00
O2     O     0.00530   0.91700   0.60160   0.01267  Uiso   1.00
O3     O     0.24170   0.89780   0.73760   0.01267  Uiso   1.00
O4     O     0.00170   0.92160   0.74100   0.01267  Uiso   1.00
O5     O     0.24920   0.09940   0.60370   0.01267  Uiso   1.00
O6     O     0.00530   0.08300   0.60160   0.01267  Uiso   1.00
O7     O     0.24170   0.10220   0.73760   0.01267  Uiso   1.00
O8     O     0.00170   0.07840   0.74100   0.01267  Uiso   1.00
Zn3    Zn    0.64197   0.00000   0.42024   0.01267  Uiso   1.00
Zn4    Zn    0.64297   0.00000   0.23809   0.01267  Uiso   1.00
H27    H     0.80710   0.25100   0.43120   0.01267  Uiso   1.00
H28    H     0.08310   0.27820   0.21980   0.01267  Uiso   1.00
H29    H     0.95480   0.16640   0.22280   0.01267  Uiso   1.00
H30    H     0.35640   0.36050   0.20700   0.01267  Uiso   1.00
H31    H     0.48340   0.24910   0.21830   0.01267  Uiso   1.00
H32    H     0.92550   0.36870   0.43070   0.01267  Uiso   1.00
H33    H     0.33260   0.17890   0.43580   0.01267  Uiso   1.00
H34    H     0.20940   0.29510   0.42720   0.01267  Uiso   1.00
H35    H     0.80710   0.74900   0.43120   0.01267  Uiso   1.00
H36    H     0.08310   0.72180   0.21980   0.01267  Uiso   1.00
H37    H     0.95480   0.83360   0.22280   0.01267  Uiso   1.00
H38    H     0.35640   0.63950   0.20700   0.01267  Uiso   1.00
H39    H     0.48340   0.75090   0.21830   0.01267  Uiso   1.00
H40    H     0.92550   0.63130   0.43070   0.01267  Uiso   1.00
H41    H     0.33260   0.82110   0.43580   0.01267  Uiso   1.00
H42    H     0.20940   0.70490   0.42720   0.01267  Uiso   1.00
H43    H     0.82000   0.00000   0.69980   0.01267  Uiso   1.00
H44    H     0.47430   0.00000   0.56440   0.01267  Uiso   1.00
H45    H     0.80990   0.00000   0.55820   0.01267  Uiso   1.00
H46    H     0.47790   0.00000   0.71030   0.01267  Uiso   1.00
H47    H     0.42780   0.00000   0.97190   0.01267  Uiso   1.00
H48    H     0.46210   0.00000   0.11220   0.01267  Uiso   1.00
H49    H     0.78810   0.00000   0.08260   0.01267  Uiso   1.00
H50    H     0.77270   0.00000   0.93880   0.01267  Uiso   1.00
H51    H     0.34180   0.50000   0.32690   0.01267  Uiso   1.00
H52    H     0.94910   0.50000   0.30130   0.01267  Uiso   1.00
C45    C     0.41640   0.19500   0.32710   0.01267  Uiso   1.00
C46    C     0.49140   0.12140   0.32410   0.01267  Uiso   1.00
C47    C     0.87320   0.19820   0.32560   0.01267  Uiso   1.00
C48    C     0.79290   0.11880   0.33270   0.01267  Uiso   1.00
C49    C     0.01530   0.34410   0.32290   0.01267  Uiso   1.00
C50    C     0.27560   0.33790   0.31770   0.01267  Uiso   1.00
C51    C     0.20840   0.42050   0.31970   0.01267  Uiso   1.00
C52    C     0.08990   0.42210   0.31490   0.01267  Uiso   1.00
C53    C     0.86130   0.25820   0.38900   0.01267  Uiso   1.00
C54    C     0.02650   0.27580   0.26090   0.01267  Uiso   1.00
C55    C     0.95110   0.20770   0.26460   0.01267  Uiso   1.00
C56    C     0.35390   0.32410   0.25310   0.01267  Uiso   1.00
C57    C     0.42650   0.25640   0.25870   0.01267  Uiso   1.00
C58    C     0.93200   0.32890   0.38770   0.01267  Uiso   1.00
C59    C     0.33700   0.21450   0.38930   0.01267  Uiso   1.00
C60    C     0.26370   0.28470   0.38570   0.01267  Uiso   1.00
C61    C     0.41640   0.80500   0.32710   0.01267  Uiso   1.00
C62    C     0.49140   0.87860   0.32410   0.01267  Uiso   1.00
C63    C     0.87320   0.80180   0.32560   0.01267  Uiso   1.00
C64    C     0.79290   0.88120   0.33270   0.01267  Uiso   1.00
C65    C     0.01530   0.65590   0.32290   0.01267  Uiso   1.00
C66    C     0.27560   0.66210   0.31770   0.01267  Uiso   1.00
C67    C     0.20840   0.57950   0.31970   0.01267  Uiso   1.00
C68    C     0.08990   0.57790   0.31490   0.01267  Uiso   1.00
C69    C     0.86130   0.74180   0.38900   0.01267  Uiso   1.00
C70    C     0.02650   0.72420   0.26090   0.01267  Uiso   1.00
C71    C     0.95110   0.79230   0.26460   0.01267  Uiso   1.00
C72    C     0.35390   0.67590   0.25310   0.01267  Uiso   1.00
C73    C     0.42650   0.74360   0.25870   0.01267  Uiso   1.00
C74    C     0.93200   0.67110   0.38770   0.01267  Uiso   1.00
C75    C     0.33700   0.78550   0.38930   0.01267  Uiso   1.00
C76    C     0.26370   0.71530   0.38570   0.01267  Uiso   1.00
C77    C     0.59870   0.00000   0.94050   0.01267  Uiso   1.00
C78    C     0.74860   0.00000   0.67350   0.01267  Uiso   1.00
C79    C     0.54470   0.00000   0.59220   0.01267  Uiso   1.00
C80    C     0.74180   0.00000   0.58880   0.01267  Uiso   1.00
C81    C     0.64840   0.00000   0.72110   0.01267  Uiso   1.00
C82    C     0.54650   0.00000   0.68020   0.01267  Uiso   1.00
C83    C     0.50250   0.00000   0.99270   0.01267  Uiso   1.00
C84    C     0.52560   0.00000   0.07680   0.01267  Uiso   1.00
C85    C     0.71450   0.00000   0.05970   0.01267  Uiso   1.00
C86    C     0.70760   0.00000   0.97270   0.01267  Uiso   1.00
C87    C     0.26210   0.50000   0.32260   0.01267  Uiso   1.00
C88    C     0.02840   0.50000   0.30900   0.01267  Uiso   1.00
N5     N     0.64260   0.00000   0.54700   0.01267  Uiso   1.00
N6     N     0.66620   0.00000   0.81090   0.01267  Uiso   1.00
N7     N     0.62730   0.00000   0.11400   0.01267  Uiso   1.00
N8     N     0.57830   0.00000   0.85120   0.01267  Uiso   1.00
O9     O     0.74920   0.09940   0.39630   0.01267  Uiso   1.00
O10    O     0.50530   0.08300   0.39840   0.01267  Uiso   1.00
O11    O     0.74170   0.10220   0.26240   0.01267  Uiso   1.00
O12    O     0.50170   0.07840   0.25900   0.01267  Uiso   1.00
O13    O     0.74920   0.90060   0.39630   0.01267  Uiso   1.00
O14    O     0.50530   0.91700   0.39840   0.01267  Uiso   1.00
O15    O     0.74170   0.89780   0.26240   0.01267  Uiso   1.00
O16    O     0.50170   0.92160   0.25900   0.01267  Uiso   1.00
