data_FUNBEW_clean
_audit_creation_date              2014-07-02
_audit_creation_method            'Materials Studio'
_symmetry_space_group_name_H-M    'P1'
_symmetry_Int_Tables_number       1
_symmetry_cell_setting            triclinic
loop_
_symmetry_equiv_pos_as_xyz
  x,y,z
_cell_length_a                    11.2038
_cell_length_b                    13.9750
_cell_length_c                    15.8480
_cell_angle_alpha                 90.0000
_cell_angle_beta                  90.0000
_cell_angle_gamma                 90.0000
loop_
_atom_site_label
_atom_site_type_symbol
_atom_site_fract_x
_atom_site_fract_y
_atom_site_fract_z
_atom_site_U_iso_or_equiv
_atom_site_adp_type
_atom_site_occupancy
Zn1    Zn    0.50000   0.89623   0.00000   0.01267  Uiso   1.00
Zn2    Zn    0.50000   0.10377   0.00000   0.01267  Uiso   1.00
H1     H     0.86200   0.85660   0.67240   0.01267  Uiso   1.00
H2     H     0.75210   0.85640   0.79610   0.01267  Uiso   1.00
H3     H     0.13800   0.14340   0.67240   0.01267  Uiso   1.00
H4     H     0.24790   0.14360   0.79610   0.01267  Uiso   1.00
H5     H     0.13800   0.85660   0.32760   0.01267  Uiso   1.00
H6     H     0.24790   0.85640   0.20390   0.01267  Uiso   1.00
H7     H     0.86200   0.14340   0.32760   0.01267  Uiso   1.00
H8     H     0.75210   0.14360   0.20390   0.01267  Uiso   1.00
H9     H     0.13800   0.14340   0.32760   0.01267  Uiso   1.00
H10    H     0.24790   0.14360   0.20390   0.01267  Uiso   1.00
H11    H     0.86200   0.85660   0.32760   0.01267  Uiso   1.00
H12    H     0.75210   0.85640   0.20390   0.01267  Uiso   1.00
H13    H     0.86200   0.14340   0.67240   0.01267  Uiso   1.00
H14    H     0.75210   0.14360   0.79610   0.01267  Uiso   1.00
H15    H     0.13800   0.85660   0.67240   0.01267  Uiso   1.00
H16    H     0.24790   0.85640   0.79610   0.01267  Uiso   1.00
H17    H     0.66770   0.73930   0.00000   0.01267  Uiso   1.00
H18    H     0.67740   0.57450   0.00000   0.01267  Uiso   1.00
H19    H     0.33230   0.26070   0.00000   0.01267  Uiso   1.00
H20    H     0.32260   0.42550   0.00000   0.01267  Uiso   1.00
H21    H     0.33230   0.73930   0.00000   0.01267  Uiso   1.00
H22    H     0.32260   0.57450   0.00000   0.01267  Uiso   1.00
H23    H     0.66770   0.26070   0.00000   0.01267  Uiso   1.00
H24    H     0.67740   0.42550   0.00000   0.01267  Uiso   1.00
C1     C     0.83820   0.91570   0.69690   0.01267  Uiso   1.00
C2     C     0.77270   0.91550   0.77020   0.01267  Uiso   1.00
C3     C     0.16180   0.08430   0.69690   0.01267  Uiso   1.00
C4     C     0.22730   0.08450   0.77020   0.01267  Uiso   1.00
C5     C     0.16180   0.91570   0.30310   0.01267  Uiso   1.00
C6     C     0.22730   0.91550   0.22980   0.01267  Uiso   1.00
C7     C     0.83820   0.08430   0.30310   0.01267  Uiso   1.00
C8     C     0.77270   0.08450   0.22980   0.01267  Uiso   1.00
C9     C     0.16180   0.08430   0.30310   0.01267  Uiso   1.00
C10    C     0.22730   0.08450   0.22980   0.01267  Uiso   1.00
C11    C     0.83820   0.91570   0.30310   0.01267  Uiso   1.00
C12    C     0.77270   0.91550   0.22980   0.01267  Uiso   1.00
C13    C     0.83820   0.08430   0.69690   0.01267  Uiso   1.00
C14    C     0.77270   0.08450   0.77020   0.01267  Uiso   1.00
C15    C     0.16180   0.91570   0.69690   0.01267  Uiso   1.00
C16    C     0.22730   0.91550   0.77020   0.01267  Uiso   1.00
C17    C     0.87880   0.00000   0.50000   0.01267  Uiso   1.00
C18    C     0.12120   0.00000   0.50000   0.01267  Uiso   1.00
C19    C     0.50000   0.55080   0.00000   0.01267  Uiso   1.00
C20    C     0.50000   0.44920   0.00000   0.01267  Uiso   1.00
C21    C     0.93940   0.00000   0.57730   0.01267  Uiso   1.00
C22    C     0.86990   0.00000   0.65840   0.01267  Uiso   1.00
C23    C     0.73680   0.00000   0.80630   0.01267  Uiso   1.00
C24    C     0.65590   0.00000   0.88310   0.01267  Uiso   1.00
C25    C     0.06060   0.00000   0.57730   0.01267  Uiso   1.00
C26    C     0.13010   0.00000   0.65840   0.01267  Uiso   1.00
C27    C     0.26320   0.00000   0.80630   0.01267  Uiso   1.00
C28    C     0.34410   0.00000   0.88310   0.01267  Uiso   1.00
C29    C     0.06060   0.00000   0.42270   0.01267  Uiso   1.00
C30    C     0.13010   0.00000   0.34160   0.01267  Uiso   1.00
C31    C     0.26320   0.00000   0.19370   0.01267  Uiso   1.00
C32    C     0.34410   0.00000   0.11690   0.01267  Uiso   1.00
C33    C     0.93940   0.00000   0.42270   0.01267  Uiso   1.00
C34    C     0.86990   0.00000   0.34160   0.01267  Uiso   1.00
C35    C     0.73680   0.00000   0.19370   0.01267  Uiso   1.00
C36    C     0.65590   0.00000   0.11690   0.01267  Uiso   1.00
C37    C     0.59440   0.70520   0.00000   0.01267  Uiso   1.00
C38    C     0.60160   0.60490   0.00000   0.01267  Uiso   1.00
C39    C     0.40560   0.29480   0.00000   0.01267  Uiso   1.00
C40    C     0.39840   0.39510   0.00000   0.01267  Uiso   1.00
C41    C     0.40560   0.70520   0.00000   0.01267  Uiso   1.00
C42    C     0.39840   0.60490   0.00000   0.01267  Uiso   1.00
C43    C     0.59440   0.29480   0.00000   0.01267  Uiso   1.00
C44    C     0.60160   0.39510   0.00000   0.01267  Uiso   1.00
Br1    Br    0.70755   0.00000   0.50000   0.01267  Uiso   1.00
Br2    Br    0.29245   0.00000   0.50000   0.01267  Uiso   1.00
N1     N     0.50000   0.75420   0.00000   0.01267  Uiso   1.00
N2     N     0.50000   0.24580   0.00000   0.01267  Uiso   1.00
O1     O     0.62480   0.92103   0.91050   0.01267  Uiso   1.00
O2     O     0.37520   0.07897   0.91050   0.01267  Uiso   1.00
O3     O     0.37520   0.92103   0.08950   0.01267  Uiso   1.00
O4     O     0.62480   0.07897   0.08950   0.01267  Uiso   1.00
O5     O     0.37520   0.07897   0.08950   0.01267  Uiso   1.00
O6     O     0.62480   0.92103   0.08950   0.01267  Uiso   1.00
O7     O     0.62480   0.07897   0.91050   0.01267  Uiso   1.00
O8     O     0.37520   0.92103   0.91050   0.01267  Uiso   1.00
