data_FUNBOG_clean
_audit_creation_date              2014-07-02
_audit_creation_method            'Materials Studio'
_symmetry_space_group_name_H-M    'P1'
_symmetry_Int_Tables_number       1
_symmetry_cell_setting            triclinic
loop_
_symmetry_equiv_pos_as_xyz
  x,y,z
_cell_length_a                    11.7110
_cell_length_b                    15.6181
_cell_length_c                    16.0362
_cell_angle_alpha                 90.0000
_cell_angle_beta                  90.2050
_cell_angle_gamma                 90.0000
loop_
_atom_site_label
_atom_site_type_symbol
_atom_site_fract_x
_atom_site_fract_y
_atom_site_fract_z
_atom_site_U_iso_or_equiv
_atom_site_adp_type
_atom_site_occupancy
Zn1    Zn    0.49996   0.50000   0.59185   0.01267  Uiso   1.00
Zn2    Zn    0.50004   0.50000   0.40815   0.01267  Uiso   1.00
H1     H     0.14090   0.82780   0.37600   0.01267  Uiso   1.00
H2     H     0.24840   0.70360   0.62420   0.01267  Uiso   1.00
H3     H     0.24780   0.70370   0.37440   0.01267  Uiso   1.00
H4     H     0.13860   0.82740   0.62500   0.01267  Uiso   1.00
H5     H     0.85910   0.82780   0.62400   0.01267  Uiso   1.00
H6     H     0.75160   0.70360   0.37580   0.01267  Uiso   1.00
H7     H     0.75220   0.70370   0.62560   0.01267  Uiso   1.00
H8     H     0.86140   0.82740   0.37500   0.01267  Uiso   1.00
H9     H     0.85910   0.17220   0.62400   0.01267  Uiso   1.00
H10    H     0.75160   0.29640   0.37580   0.01267  Uiso   1.00
H11    H     0.75220   0.29630   0.62560   0.01267  Uiso   1.00
H12    H     0.86140   0.17260   0.37500   0.01267  Uiso   1.00
H13    H     0.14090   0.17220   0.37600   0.01267  Uiso   1.00
H14    H     0.24840   0.29640   0.62420   0.01267  Uiso   1.00
H15    H     0.24780   0.29630   0.37440   0.01267  Uiso   1.00
H16    H     0.13860   0.17260   0.62500   0.01267  Uiso   1.00
H17    H     0.66520   0.50000   0.72320   0.01267  Uiso   1.00
H18    H     0.33750   0.50000   0.74430   0.01267  Uiso   1.00
H19    H     0.35310   0.50000   0.88840   0.01267  Uiso   1.00
H20    H     0.69080   0.50000   0.86060   0.01267  Uiso   1.00
H21    H     0.33480   0.50000   0.27680   0.01267  Uiso   1.00
H22    H     0.66250   0.50000   0.25570   0.01267  Uiso   1.00
H23    H     0.64690   0.50000   0.11160   0.01267  Uiso   1.00
H24    H     0.30920   0.50000   0.13940   0.01267  Uiso   1.00
C1     C     0.26490   0.69300   0.50070   0.01267  Uiso   1.00
C2     C     0.06140   0.92130   0.50060   0.01267  Uiso   1.00
C3     C     0.16170   0.80240   0.42630   0.01267  Uiso   1.00
C4     C     0.22790   0.72890   0.57390   0.01267  Uiso   1.00
C5     C     0.22800   0.72890   0.42480   0.01267  Uiso   1.00
C6     C     0.12580   0.83910   0.50010   0.01267  Uiso   1.00
C7     C     0.34590   0.61830   0.50070   0.01267  Uiso   1.00
C8     C     0.16020   0.80290   0.57460   0.01267  Uiso   1.00
C9     C     0.73510   0.69300   0.49930   0.01267  Uiso   1.00
C10    C     0.93860   0.92130   0.49940   0.01267  Uiso   1.00
C11    C     0.83830   0.80240   0.57370   0.01267  Uiso   1.00
C12    C     0.77210   0.72890   0.42610   0.01267  Uiso   1.00
C13    C     0.77200   0.72890   0.57520   0.01267  Uiso   1.00
C14    C     0.87420   0.83910   0.49990   0.01267  Uiso   1.00
C15    C     0.65410   0.61830   0.49930   0.01267  Uiso   1.00
C16    C     0.83980   0.80290   0.42540   0.01267  Uiso   1.00
C17    C     0.73510   0.30700   0.49930   0.01267  Uiso   1.00
C18    C     0.93860   0.07870   0.49940   0.01267  Uiso   1.00
C19    C     0.83830   0.19760   0.57370   0.01267  Uiso   1.00
C20    C     0.77210   0.27110   0.42610   0.01267  Uiso   1.00
C21    C     0.77200   0.27110   0.57520   0.01267  Uiso   1.00
C22    C     0.87420   0.16090   0.49990   0.01267  Uiso   1.00
C23    C     0.65410   0.38170   0.49930   0.01267  Uiso   1.00
C24    C     0.83980   0.19710   0.42540   0.01267  Uiso   1.00
C25    C     0.26490   0.30700   0.50070   0.01267  Uiso   1.00
C26    C     0.06140   0.07870   0.50060   0.01267  Uiso   1.00
C27    C     0.16170   0.19760   0.42630   0.01267  Uiso   1.00
C28    C     0.22790   0.27110   0.57390   0.01267  Uiso   1.00
C29    C     0.22800   0.27110   0.42480   0.01267  Uiso   1.00
C30    C     0.12580   0.16090   0.50010   0.01267  Uiso   1.00
C31    C     0.34590   0.38170   0.50070   0.01267  Uiso   1.00
C32    C     0.16020   0.19710   0.57460   0.01267  Uiso   1.00
C33    C     0.60020   0.50000   0.75630   0.01267  Uiso   1.00
C34    C     0.41010   0.50000   0.76800   0.01267  Uiso   1.00
C35    C     0.41880   0.50000   0.85600   0.01267  Uiso   1.00
C36    C     0.52470   0.50000   0.89370   0.01267  Uiso   1.00
C37    C     0.61680   0.50000   0.83940   0.01267  Uiso   1.00
C38    C     0.39980   0.50000   0.24370   0.01267  Uiso   1.00
C39    C     0.58990   0.50000   0.23200   0.01267  Uiso   1.00
C40    C     0.58120   0.50000   0.14400   0.01267  Uiso   1.00
C41    C     0.47530   0.50000   0.10630   0.01267  Uiso   1.00
C42    C     0.38320   0.50000   0.16060   0.01267  Uiso   1.00
C43    C     0.10340   0.00000   0.50330   0.01267  Uiso   1.00
C44    C     0.89660   0.00000   0.49670   0.01267  Uiso   1.00
Br1    Br    0.27925   0.00000   0.50022   0.01267  Uiso   1.00
Br2    Br    0.72075   0.00000   0.49978   0.01267  Uiso   1.00
N1     N     0.50020   0.50000   0.71690   0.01267  Uiso   1.00
N2     N     0.54670   0.50000   0.98210   0.01267  Uiso   1.00
N3     N     0.49980   0.50000   0.28310   0.01267  Uiso   1.00
N4     N     0.45330   0.50000   0.01790   0.01267  Uiso   1.00
O1     O     0.38230   0.59130   0.43000   0.01267  Uiso   1.00
O2     O     0.38050   0.59030   0.57010   0.01267  Uiso   1.00
O3     O     0.61770   0.59130   0.57000   0.01267  Uiso   1.00
O4     O     0.61950   0.59030   0.42990   0.01267  Uiso   1.00
O5     O     0.61770   0.40870   0.57000   0.01267  Uiso   1.00
O6     O     0.61950   0.40970   0.42990   0.01267  Uiso   1.00
O7     O     0.38230   0.40870   0.43000   0.01267  Uiso   1.00
O8     O     0.38050   0.40970   0.57010   0.01267  Uiso   1.00
