data_FURQOZ_ion_b
_audit_creation_date              2014-07-02
_audit_creation_method            'Materials Studio'
_symmetry_space_group_name_H-M    'P1'
_symmetry_Int_Tables_number       1
_symmetry_cell_setting            triclinic
loop_
_symmetry_equiv_pos_as_xyz
  x,y,z
_cell_length_a                    19.8145
_cell_length_b                    19.8145
_cell_length_c                    19.8145
_cell_angle_alpha                 118.0469
_cell_angle_beta                  118.0469
_cell_angle_gamma                 118.0469
loop_
_atom_site_label
_atom_site_type_symbol
_atom_site_fract_x
_atom_site_fract_y
_atom_site_fract_z
_atom_site_U_iso_or_equiv
_atom_site_adp_type
_atom_site_occupancy
Ag1    Ag    0.34663   0.81511   0.32106   0.00000  Uiso   1.00
O2     O     0.88242   0.54488   0.22400   0.00000  Uiso   1.00
N3     N     0.13071   0.67696   0.20333   0.00000  Uiso   1.00
N4     N     0.10894   0.58281   0.46865   0.00000  Uiso   1.00
C5     C     0.01939   0.61503   0.08348   0.00000  Uiso   1.00
H6     H     0.03650   0.63160   0.05190   0.00000  Uiso   1.00
C7     C     0.88115   0.52830   0.00395   0.00000  Uiso   1.00
H8     H     0.80460   0.48570   0.91910   0.00000  Uiso   1.00
C9     C     0.85611   0.50463   0.04996   0.00000  Uiso   1.00
H10    H     0.76350   0.44780   0.99930   0.00000  Uiso   1.00
C11    C     0.96859   0.56531   0.17170   0.00000  Uiso   1.00
C12    C     0.10492   0.65138   0.24600   0.00000  Uiso   1.00
H13    H     0.18210   0.69320   0.32950   0.00000  Uiso   1.00
C14    C     0.94693   0.54730   0.22817   0.00000  Uiso   1.00
C15    C     0.00312   0.53063   0.28765   0.00000  Uiso   1.00
C16    C     0.98778   0.44197   0.21705   0.00000  Uiso   1.00
H17    H     0.94650   0.39390   0.13120   0.00000  Uiso   1.00
C18    C     0.03417   0.42520   0.27473   0.00000  Uiso   1.00
H19    H     0.02500   0.36500   0.22890   0.00000  Uiso   1.00
C20    C     0.09377   0.49703   0.39950   0.00000  Uiso   1.00
H21    H     0.12580   0.48530   0.43860   0.00000  Uiso   1.00
C22    C     0.06292   0.59770   0.41188   0.00000  Uiso   1.00
H23    H     0.07150   0.65680   0.45850   0.00000  Uiso   1.00
C24    C     0.38613  -0.04885   0.28152   0.00000  Uiso   1.00
O25    O     0.50661   0.04902   0.42197   0.00000  Uiso   1.00
O26    O     0.24953  -0.20161   0.14638   0.00000  Uiso   1.00
C27    C     0.41292   0.03688   0.28000   0.00000  Uiso   1.00
F28    F     0.30243  -0.06376   0.13083   0.00000  Uiso   1.00
F29    F     0.56243   0.16436   0.38131   0.00000  Uiso   1.00
F30    F     0.40131   0.09643   0.32986   0.00000  Uiso   1.00
Ag31   Ag    0.32106   0.34663   0.81511   0.00000  Uiso   1.00
O32    O     0.22400   0.88242   0.54488   0.00000  Uiso   1.00
N33    N     0.20333   0.13071   0.67696   0.00000  Uiso   1.00
N34    N     0.46865   0.10894   0.58281   0.00000  Uiso   1.00
C35    C     0.08348   0.01939   0.61503   0.00000  Uiso   1.00
H36    H     0.05190   0.03650   0.63160   0.00000  Uiso   1.00
C37    C     0.00395   0.88115   0.52830   0.00000  Uiso   1.00
H38    H     0.91910   0.80460   0.48570   0.00000  Uiso   1.00
C39    C     0.04996   0.85611   0.50463   0.00000  Uiso   1.00
H40    H     0.99930   0.76350   0.44780   0.00000  Uiso   1.00
C41    C     0.17170   0.96859   0.56531   0.00000  Uiso   1.00
C42    C     0.24600   0.10492   0.65138   0.00000  Uiso   1.00
H43    H     0.32950   0.18210   0.69320   0.00000  Uiso   1.00
C44    C     0.22817   0.94693   0.54730   0.00000  Uiso   1.00
C45    C     0.28765   0.00312   0.53063   0.00000  Uiso   1.00
C46    C     0.21705   0.98778   0.44197   0.00000  Uiso   1.00
H47    H     0.13120   0.94650   0.39390   0.00000  Uiso   1.00
C48    C     0.27473   0.03417   0.42520   0.00000  Uiso   1.00
H49    H     0.22890   0.02500   0.36500   0.00000  Uiso   1.00
C50    C     0.39950   0.09377   0.49703   0.00000  Uiso   1.00
H51    H     0.43860   0.12580   0.48530   0.00000  Uiso   1.00
C52    C     0.41188   0.06292   0.59770   0.00000  Uiso   1.00
H53    H     0.45850   0.07150   0.65680   0.00000  Uiso   1.00
C54    C     0.28152   0.38613  -0.04885   0.00000  Uiso   1.00
O55    O     0.42197   0.50661   0.04902   0.00000  Uiso   1.00
O56    O     0.14638   0.24953  -0.20161   0.00000  Uiso   1.00
C57    C     0.28000   0.41292   0.03688   0.00000  Uiso   1.00
F58    F     0.13083   0.30243  -0.06376   0.00000  Uiso   1.00
F59    F     0.38131   0.56243   0.16436   0.00000  Uiso   1.00
F60    F     0.32986   0.40131   0.09643   0.00000  Uiso   1.00
Ag61   Ag    0.81511   0.32106   0.34663   0.00000  Uiso   1.00
O62    O     0.54488   0.22400   0.88242   0.00000  Uiso   1.00
N63    N     0.67696   0.20333   0.13071   0.00000  Uiso   1.00
N64    N     0.58281   0.46865   0.10894   0.00000  Uiso   1.00
C65    C     0.61503   0.08348   0.01939   0.00000  Uiso   1.00
H66    H     0.63160   0.05190   0.03650   0.00000  Uiso   1.00
C67    C     0.52830   0.00395   0.88115   0.00000  Uiso   1.00
H68    H     0.48570   0.91910   0.80460   0.00000  Uiso   1.00
C69    C     0.50463   0.04996   0.85611   0.00000  Uiso   1.00
H70    H     0.44780   0.99930   0.76350   0.00000  Uiso   1.00
C71    C     0.56531   0.17170   0.96859   0.00000  Uiso   1.00
C72    C     0.65138   0.24600   0.10492   0.00000  Uiso   1.00
H73    H     0.69320   0.32950   0.18210   0.00000  Uiso   1.00
C74    C     0.54730   0.22817   0.94693   0.00000  Uiso   1.00
C75    C     0.53063   0.28765   0.00312   0.00000  Uiso   1.00
C76    C     0.44197   0.21705   0.98778   0.00000  Uiso   1.00
H77    H     0.39390   0.13120   0.94650   0.00000  Uiso   1.00
C78    C     0.42520   0.27473   0.03417   0.00000  Uiso   1.00
H79    H     0.36500   0.22890   0.02500   0.00000  Uiso   1.00
C80    C     0.49703   0.39950   0.09377   0.00000  Uiso   1.00
H81    H     0.48530   0.43860   0.12580   0.00000  Uiso   1.00
C82    C     0.59770   0.41188   0.06292   0.00000  Uiso   1.00
H83    H     0.65680   0.45850   0.07150   0.00000  Uiso   1.00
C84    C    -0.04885   0.28152   0.38613   0.00000  Uiso   1.00
O85    O     0.04902   0.42197   0.50661   0.00000  Uiso   1.00
O86    O    -0.20161   0.14638   0.24953   0.00000  Uiso   1.00
C87    C     0.03688   0.28000   0.41292   0.00000  Uiso   1.00
F88    F    -0.06376   0.13083   0.30243   0.00000  Uiso   1.00
F89    F     0.16436   0.38131   0.56243   0.00000  Uiso   1.00
F90    F     0.09643   0.32986   0.40131   0.00000  Uiso   1.00
Ag91   Ag    0.65337   0.18489   0.67894   0.00000  Uiso   1.00
O92    O     0.11758   0.45512   0.77600   0.00000  Uiso   1.00
N93    N     0.86929   0.32304   0.79667   0.00000  Uiso   1.00
N94    N     0.89106   0.41719   0.53135   0.00000  Uiso   1.00
C95    C     0.98061   0.38497   0.91652   0.00000  Uiso   1.00
H96    H     0.96350   0.36840   0.94810   0.00000  Uiso   1.00
C97    C     0.11885   0.47170   0.99605   0.00000  Uiso   1.00
H98    H     0.19540   0.51430   0.08090   0.00000  Uiso   1.00
C99    C     0.14389   0.49537   0.95004   0.00000  Uiso   1.00
H100   H     0.23650   0.55220   0.00070   0.00000  Uiso   1.00
C101   C     0.03141   0.43469   0.82830   0.00000  Uiso   1.00
C102   C     0.89508   0.34862   0.75400   0.00000  Uiso   1.00
H103   H     0.81790   0.30680   0.67050   0.00000  Uiso   1.00
C104   C     0.05307   0.45270   0.77183   0.00000  Uiso   1.00
C105   C     0.99688   0.46937   0.71235   0.00000  Uiso   1.00
C106   C     0.01222   0.55803   0.78295   0.00000  Uiso   1.00
H107   H     0.05350   0.60610   0.86880   0.00000  Uiso   1.00
C108   C     0.96583   0.57480   0.72527   0.00000  Uiso   1.00
H109   H     0.97500   0.63500   0.77110   0.00000  Uiso   1.00
C110   C     0.90623   0.50297   0.60050   0.00000  Uiso   1.00
H111   H     0.87420   0.51470   0.56140   0.00000  Uiso   1.00
C112   C     0.93708   0.40230   0.58812   0.00000  Uiso   1.00
H113   H     0.92850   0.34320   0.54150   0.00000  Uiso   1.00
C114   C     0.61387   1.04885   0.71848   0.00000  Uiso   1.00
O115   O     0.49339   0.95098   0.57803   0.00000  Uiso   1.00
O116   O     0.75047   1.20161   0.85362   0.00000  Uiso   1.00
C117   C     0.58708   0.96312   0.72000   0.00000  Uiso   1.00
F118   F     0.69757   1.06376   0.86917   0.00000  Uiso   1.00
F119   F     0.43757   0.83564   0.61869   0.00000  Uiso   1.00
F120   F     0.59869   0.90357   0.67014   0.00000  Uiso   1.00
Ag121  Ag    0.67894   0.65337   0.18489   0.00000  Uiso   1.00
O122   O     0.77600   0.11758   0.45512   0.00000  Uiso   1.00
N123   N     0.79667   0.86929   0.32304   0.00000  Uiso   1.00
N124   N     0.53135   0.89106   0.41719   0.00000  Uiso   1.00
C125   C     0.91652   0.98061   0.38497   0.00000  Uiso   1.00
H126   H     0.94810   0.96350   0.36840   0.00000  Uiso   1.00
C127   C     0.99605   0.11885   0.47170   0.00000  Uiso   1.00
H128   H     0.08090   0.19540   0.51430   0.00000  Uiso   1.00
C129   C     0.95004   0.14389   0.49537   0.00000  Uiso   1.00
H130   H     0.00070   0.23650   0.55220   0.00000  Uiso   1.00
C131   C     0.82830   0.03141   0.43469   0.00000  Uiso   1.00
C132   C     0.75400   0.89508   0.34862   0.00000  Uiso   1.00
H133   H     0.67050   0.81790   0.30680   0.00000  Uiso   1.00
C134   C     0.77183   0.05307   0.45270   0.00000  Uiso   1.00
C135   C     0.71235   0.99688   0.46937   0.00000  Uiso   1.00
C136   C     0.78295   0.01222   0.55803   0.00000  Uiso   1.00
H137   H     0.86880   0.05350   0.60610   0.00000  Uiso   1.00
C138   C     0.72527   0.96583   0.57480   0.00000  Uiso   1.00
H139   H     0.77110   0.97500   0.63500   0.00000  Uiso   1.00
C140   C     0.60050   0.90623   0.50297   0.00000  Uiso   1.00
H141   H     0.56140   0.87420   0.51470   0.00000  Uiso   1.00
C142   C     0.58812   0.93708   0.40230   0.00000  Uiso   1.00
H143   H     0.54150   0.92850   0.34320   0.00000  Uiso   1.00
C144   C     0.71848   0.61387   1.04885   0.00000  Uiso   1.00
O145   O     0.57803   0.49339   0.95098   0.00000  Uiso   1.00
O146   O     0.85362   0.75047   1.20161   0.00000  Uiso   1.00
C147   C     0.72000   0.58708   0.96312   0.00000  Uiso   1.00
F148   F     0.86917   0.69757   1.06376   0.00000  Uiso   1.00
F149   F     0.61869   0.43757   0.83564   0.00000  Uiso   1.00
F150   F     0.67014   0.59869   0.90357   0.00000  Uiso   1.00
Ag151  Ag    0.18489   0.67894   0.65337   0.00000  Uiso   1.00
O152   O     0.45512   0.77600   0.11758   0.00000  Uiso   1.00
N153   N     0.32304   0.79667   0.86929   0.00000  Uiso   1.00
N154   N     0.41719   0.53135   0.89106   0.00000  Uiso   1.00
C155   C     0.38497   0.91652   0.98061   0.00000  Uiso   1.00
H156   H     0.36840   0.94810   0.96350   0.00000  Uiso   1.00
C157   C     0.47170   0.99605   0.11885   0.00000  Uiso   1.00
H158   H     0.51430   0.08090   0.19540   0.00000  Uiso   1.00
C159   C     0.49537   0.95004   0.14389   0.00000  Uiso   1.00
H160   H     0.55220   0.00070   0.23650   0.00000  Uiso   1.00
C161   C     0.43469   0.82830   0.03141   0.00000  Uiso   1.00
C162   C     0.34862   0.75400   0.89508   0.00000  Uiso   1.00
H163   H     0.30680   0.67050   0.81790   0.00000  Uiso   1.00
C164   C     0.45270   0.77183   0.05307   0.00000  Uiso   1.00
C165   C     0.46937   0.71235   0.99688   0.00000  Uiso   1.00
C166   C     0.55803   0.78295   0.01222   0.00000  Uiso   1.00
H167   H     0.60610   0.86880   0.05350   0.00000  Uiso   1.00
C168   C     0.57480   0.72527   0.96583   0.00000  Uiso   1.00
H169   H     0.63500   0.77110   0.97500   0.00000  Uiso   1.00
C170   C     0.50297   0.60050   0.90623   0.00000  Uiso   1.00
H171   H     0.51470   0.56140   0.87420   0.00000  Uiso   1.00
C172   C     0.40230   0.58812   0.93708   0.00000  Uiso   1.00
H173   H     0.34320   0.54150   0.92850   0.00000  Uiso   1.00
C174   C     1.04885   0.71848   0.61387   0.00000  Uiso   1.00
O175   O     0.95098   0.57803   0.49339   0.00000  Uiso   1.00
O176   O     1.20161   0.85362   0.75047   0.00000  Uiso   1.00
C177   C     0.96312   0.72000   0.58708   0.00000  Uiso   1.00
F178   F     1.06376   0.86917   0.69757   0.00000  Uiso   1.00
F179   F     0.83564   0.61869   0.43757   0.00000  Uiso   1.00
F180   F     0.90357   0.67014   0.59869   0.00000  Uiso   1.00
loop_
_geom_bond_atom_site_label_1
_geom_bond_atom_site_label_2
_geom_bond_distance
_geom_bond_site_symmetry_2
_ccdc_geom_bond_type
Ag1    N3      2.199   .     S
Ag1    N124    2.204   .     S
Ag1    Ag91    3.105   1_565 S
O2     C14     1.218   .     D
N3     C5      1.341   .     A
N3     C12     1.341   .     A
N4     C20     1.341   .     A
N4     C22     1.336   .     A
N4     Ag151   2.204   .     S
C5     H6      0.950   .     S
C5     C7      1.381   1_455 S
C7     C9      1.381   .     A
C7     C5      1.381   1_655 S
C7     H8      0.950   1_554 A
H8     C7      0.950   1_556 A
C9     C11     1.389   .     A
C9     H10     0.951   1_554 A
H10    C9      0.951   1_556 A
C11    C14     1.499   .     S
C11    C12     1.393   1_655 S
C12    H13     0.950   .     S
C12    C11     1.393   1_455 S
C14    C15     1.489   1_655 A
C15    C22     1.389   .     A
C15    C14     1.489   1_455 A
C15    C16     1.387   1_455 S
C16    H17     0.951   .     S
C16    C15     1.387   1_655 S
C16    C18     1.385   1_655 A
C18    H19     0.950   .     S
C18    C20     1.377   .     A
C18    C16     1.385   1_455 A
C20    H21     0.950   .     S
C22    H23     0.949   .     S
C24    O25     1.236   .     A
C24    O26     1.231   .     A
C24    C27     1.544   .     S
C27    F28     1.331   .     S
C27    F29     1.337   .     S
C27    F30     1.339   .     S
Ag31   N33     2.199   .     S
Ag31   N154    2.204   .     S
Ag31   Ag121   3.105   1_556 S
O32    C44     1.218   .     D
N33    C35     1.341   .     A
N33    C42     1.341   .     A
N34    C50     1.341   .     A
N34    C52     1.336   .     A
N34    Ag91    2.204   .     S
C35    H36     0.950   .     S
C35    C37     1.381   1_545 A
C37    C39     1.381   .     A
C37    C35     1.381   1_565 A
C37    H38     0.950   1_455 S
H38    C37     0.950   1_655 S
C39    C41     1.389   .     A
C39    H40     0.951   1_455 A
H40    C39     0.951   1_655 A
C41    C44     1.499   .     S
C41    C42     1.393   1_565 S
C42    H43     0.950   .     S
C42    C41     1.393   1_545 S
C44    C45     1.489   1_565 S
C45    C52     1.389   .     A
C45    C44     1.489   1_545 S
C45    C46     1.387   1_545 S
C46    H47     0.951   .     S
C46    C45     1.387   1_565 S
C46    C48     1.385   1_565 A
C48    H49     0.950   .     S
C48    C50     1.377   .     A
C48    C46     1.385   1_545 A
C50    H51     0.950   .     S
C52    H53     0.949   .     S
C54    O55     1.236   .     A
C54    O56     1.231   .     A
C54    C57     1.544   .     S
C57    F58     1.331   .     S
C57    F59     1.337   .     S
C57    F60     1.339   .     S
Ag61   N63     2.199   .     S
Ag61   N94     2.204   .     S
Ag61   Ag151   3.105   1_655 A
O62    C74     1.218   .     D
N63    C65     1.341   .     A
N63    C72     1.341   .     A
N64    C80     1.341   .     A
N64    C82     1.336   .     A
N64    Ag121   2.204   .     S
C65    H66     0.950   .     S
C65    C67     1.381   1_554 A
C67    C69     1.381   .     A
C67    C65     1.381   1_556 A
C67    H68     0.950   1_545 S
H68    C67     0.950   1_565 S
C69    C71     1.389   .     A
C69    H70     0.951   1_545 A
H70    C69     0.951   1_565 A
C71    C74     1.499   .     S
C71    C72     1.393   1_556 S
C72    H73     0.950   .     S
C72    C71     1.393   1_554 S
C74    C75     1.489   1_556 S
C75    C82     1.389   .     A
C75    C74     1.489   1_554 S
C75    C76     1.387   1_554 A
C76    H77     0.951   .     S
C76    C75     1.387   1_556 A
C76    C78     1.385   1_556 S
C78    H79     0.950   .     S
C78    C80     1.377   .     A
C78    C76     1.385   1_554 S
C80    H81     0.950   .     S
C82    H83     0.949   .     S
C84    O85     1.236   .     A
C84    O86     1.231   .     A
C84    C87     1.544   .     S
C87    F88     1.331   .     S
C87    F89     1.337   .     S
C87    F90     1.339   .     S
Ag91   N93     2.199   .     S
Ag91   Ag1     3.105   1_545 S
O92    C104    1.218   .     D
N93    C95     1.341   .     A
N93    C102    1.341   .     A
N94    C110    1.341   .     A
N94    C112    1.336   .     A
C95    H96     0.950   .     S
C95    C97     1.381   1_655 S
C97    C99     1.381   .     A
C97    C95     1.381   1_455 S
C97    H98     0.950   1_556 S
H98    C97     0.950   1_554 S
C99    C101    1.389   .     A
C99    H100    0.951   1_556 S
H100   C99     0.951   1_554 S
C101   C104    1.499   .     S
C101   C102    1.393   1_455 D
C102   H103    0.950   .     S
C102   C101    1.393   1_655 D
C104   C105    1.489   1_455 A
C105   C112    1.389   .     A
C105   C104    1.489   1_655 A
C105   C106    1.387   1_655 A
C106   H107    0.951   .     S
C106   C105    1.387   1_455 A
C106   C108    1.385   1_455 S
C108   H109    0.950   .     S
C108   C110    1.377   .     A
C108   C106    1.385   1_655 S
C110   H111    0.950   .     S
C112   H113    0.949   .     S
C114   O115    1.236   .     A
C114   O116    1.231   .     A
C114   C117    1.544   .     S
C117   F118    1.331   .     S
C117   F119    1.337   .     S
C117   F120    1.339   .     S
Ag121  N123    2.199   .     S
Ag121  Ag31    3.105   1_554 S
O122   C134    1.218   .     D
N123   C125    1.341   .     A
N123   C132    1.341   .     A
N124   C140    1.341   .     A
N124   C142    1.336   .     A
C125   H126    0.950   .     S
C125   C127    1.381   1_565 S
C127   C129    1.381   .     A
C127   C125    1.381   1_545 S
C127   H128    0.950   1_655 A
H128   C127    0.950   1_455 A
C129   C131    1.389   .     A
C129   H130    0.951   1_655 S
H130   C129    0.951   1_455 S
C131   C134    1.499   .     S
C131   C132    1.393   1_545 S
C132   H133    0.950   .     S
C132   C131    1.393   1_565 S
C134   C135    1.489   1_545 A
C135   C142    1.389   .     A
C135   C134    1.489   1_565 A
C135   C136    1.387   1_565 S
C136   H137    0.951   .     S
C136   C135    1.387   1_545 S
C136   C138    1.385   1_545 S
C138   H139    0.950   .     S
C138   C140    1.377   .     A
C138   C136    1.385   1_565 S
C140   H141    0.950   .     S
C142   H143    0.949   .     S
C144   O145    1.236   .     A
C144   O146    1.231   .     A
C144   C147    1.544   .     S
C147   F148    1.331   .     S
C147   F149    1.337   .     S
C147   F150    1.339   .     S
Ag151  N153    2.199   .     S
Ag151  Ag61    3.105   1_455 A
O152   C164    1.218   .     D
N153   C155    1.341   .     A
N153   C162    1.341   .     A
N154   C170    1.341   .     A
N154   C172    1.336   .     A
C155   H156    0.950   .     S
C155   C157    1.381   1_556 D
C157   C159    1.381   .     A
C157   C155    1.381   1_554 D
C157   H158    0.950   1_565 A
H158   C157    0.950   1_545 A
C159   C161    1.389   .     A
C159   H160    0.951   1_565 A
H160   C159    0.951   1_545 A
C161   C164    1.499   .     S
C161   C162    1.393   1_554 A
C162   H163    0.950   .     S
C162   C161    1.393   1_556 A
C164   C165    1.489   1_554 S
C165   C172    1.389   .     A
C165   C164    1.489   1_556 S
C165   C166    1.387   1_556 A
C166   H167    0.951   .     S
C166   C165    1.387   1_554 A
C166   C168    1.385   1_554 S
C168   H169    0.950   .     S
C168   C170    1.377   .     A
C168   C166    1.385   1_556 S
C170   H171    0.950   .     S
C172   H173    0.949   .     S
C174   O175    1.236   .     A
C174   O176    1.231   .     A
C174   C177    1.544   .     S
C177   F178    1.331   .     S
C177   F179    1.337   .     S
C177   F180    1.339   .     S
