data_GAXGET_clean
_audit_creation_date              2014-07-02
_audit_creation_method            'Materials Studio'
_symmetry_space_group_name_H-M    'P1'
_symmetry_Int_Tables_number       1
_symmetry_cell_setting            triclinic
loop_
_symmetry_equiv_pos_as_xyz
  x,y,z
_cell_length_a                    11.1965
_cell_length_b                    11.1965
_cell_length_c                    25.8440
_cell_angle_alpha                 90.6902
_cell_angle_beta                  90.6902
_cell_angle_gamma                 94.9335
loop_
_atom_site_label
_atom_site_type_symbol
_atom_site_fract_x
_atom_site_fract_y
_atom_site_fract_z
_atom_site_U_iso_or_equiv
_atom_site_adp_type
_atom_site_occupancy
Co1    Co    0.70743   0.35249   0.49399   0.01267  Uiso   1.00
Co2    Co    0.64751   0.29257   0.00601   0.01267  Uiso   1.00
Co3    Co    0.29257   0.64751   0.50601   0.01267  Uiso   1.00
Co4    Co    0.35249   0.70743   0.99399   0.01267  Uiso   1.00
Co5    Co    0.00000   0.50000   0.50000   0.01267  Uiso   1.00
Co6    Co    0.50000   0.00000   0.00000   0.01267  Uiso   1.00
H1     H     0.59320   0.55580   0.10110   0.01267  Uiso   1.00
H2     H     0.72530   0.49490   0.16300   0.01267  Uiso   1.00
H3     H     0.86020   0.83600   0.18390   0.01267  Uiso   1.00
H4     H     0.72680   0.89620   0.12200   0.01267  Uiso   1.00
H5     H     0.68650   0.62150   0.26060   0.01267  Uiso   1.00
H6     H     0.64600   0.55620   0.34370   0.01267  Uiso   1.00
H7     H     0.98520   0.47540   0.36190   0.01267  Uiso   1.00
H8     H     0.02690   0.53750   0.27860   0.01267  Uiso   1.00
H9     H     0.10630   0.22250   0.61350   0.01267  Uiso   1.00
H10    H     0.12780   0.12600   0.69140   0.01267  Uiso   1.00
H11    H     0.77170   0.10430   0.70930   0.01267  Uiso   1.00
H12    H     0.75240   0.20400   0.63210   0.01267  Uiso   1.00
H13    H     0.86780   0.20440   0.42030   0.01267  Uiso   1.00
H14    H     0.84550   0.04350   0.36380   0.01267  Uiso   1.00
H15    H     0.66180   0.93360   0.35610   0.01267  Uiso   1.00
H16    H     0.22160   0.11820   0.49890   0.01267  Uiso   1.00
H17    H     0.26480   0.29180   0.54750   0.01267  Uiso   1.00
H18    H     0.45700   0.38560   0.54860   0.01267  Uiso   1.00
H19    H     0.44310   0.90190   0.38590   0.01267  Uiso   1.00
H20    H     0.29540   0.96280   0.43610   0.01267  Uiso   1.00
H21    H     0.44420   0.40680   0.39890   0.01267  Uiso   1.00
H22    H     0.50510   0.27470   0.33700   0.01267  Uiso   1.00
H23    H     0.16400   0.13980   0.31610   0.01267  Uiso   1.00
H24    H     0.10380   0.27320   0.37800   0.01267  Uiso   1.00
H25    H     0.37850   0.31350   0.23940   0.01267  Uiso   1.00
H26    H     0.44380   0.35400   0.15630   0.01267  Uiso   1.00
H27    H     0.52460   0.01480   0.13810   0.01267  Uiso   1.00
H28    H     0.46250   0.97310   0.22140   0.01267  Uiso   1.00
H29    H     0.77750   0.89370   0.88650   0.01267  Uiso   1.00
H30    H     0.87400   0.87220   0.80860   0.01267  Uiso   1.00
H31    H     0.89570   0.22830   0.79070   0.01267  Uiso   1.00
H32    H     0.79600   0.24760   0.86790   0.01267  Uiso   1.00
H33    H     0.79560   0.13220   0.07970   0.01267  Uiso   1.00
H34    H     0.95650   0.15450   0.13620   0.01267  Uiso   1.00
H35    H     0.06640   0.33820   0.14390   0.01267  Uiso   1.00
H36    H     0.88180   0.77840   0.00110   0.01267  Uiso   1.00
H37    H     0.70820   0.73520   0.95250   0.01267  Uiso   1.00
H38    H     0.61440   0.54300   0.95140   0.01267  Uiso   1.00
H39    H     0.09810   0.55690   0.11410   0.01267  Uiso   1.00
H40    H     0.03720   0.70460   0.06390   0.01267  Uiso   1.00
H41    H     0.40680   0.44420   0.89890   0.01267  Uiso   1.00
H42    H     0.27470   0.50510   0.83700   0.01267  Uiso   1.00
H43    H     0.13980   0.16400   0.81610   0.01267  Uiso   1.00
H44    H     0.27320   0.10380   0.87800   0.01267  Uiso   1.00
H45    H     0.31350   0.37850   0.73940   0.01267  Uiso   1.00
H46    H     0.35400   0.44380   0.65630   0.01267  Uiso   1.00
H47    H     0.01480   0.52460   0.63810   0.01267  Uiso   1.00
H48    H     0.97310   0.46250   0.72140   0.01267  Uiso   1.00
H49    H     0.89370   0.77750   0.38650   0.01267  Uiso   1.00
H50    H     0.87220   0.87400   0.30860   0.01267  Uiso   1.00
H51    H     0.22830   0.89570   0.29070   0.01267  Uiso   1.00
H52    H     0.24760   0.79600   0.36790   0.01267  Uiso   1.00
H53    H     0.13220   0.79560   0.57970   0.01267  Uiso   1.00
H54    H     0.15450   0.95650   0.63620   0.01267  Uiso   1.00
H55    H     0.33820   0.06640   0.64390   0.01267  Uiso   1.00
H56    H     0.77840   0.88180   0.50110   0.01267  Uiso   1.00
H57    H     0.73520   0.70820   0.45250   0.01267  Uiso   1.00
H58    H     0.54300   0.61440   0.45140   0.01267  Uiso   1.00
H59    H     0.55690   0.09810   0.61410   0.01267  Uiso   1.00
H60    H     0.70460   0.03720   0.56390   0.01267  Uiso   1.00
H61    H     0.55580   0.59320   0.60110   0.01267  Uiso   1.00
H62    H     0.49490   0.72530   0.66300   0.01267  Uiso   1.00
H63    H     0.83600   0.86020   0.68390   0.01267  Uiso   1.00
H64    H     0.89620   0.72680   0.62200   0.01267  Uiso   1.00
H65    H     0.62150   0.68650   0.76060   0.01267  Uiso   1.00
H66    H     0.55620   0.64600   0.84370   0.01267  Uiso   1.00
H67    H     0.47540   0.98520   0.86190   0.01267  Uiso   1.00
H68    H     0.53750   0.02690   0.77860   0.01267  Uiso   1.00
H69    H     0.22250   0.10630   0.11350   0.01267  Uiso   1.00
H70    H     0.12600   0.12780   0.19140   0.01267  Uiso   1.00
H71    H     0.10430   0.77170   0.20930   0.01267  Uiso   1.00
H72    H     0.20400   0.75240   0.13210   0.01267  Uiso   1.00
H73    H     0.20440   0.86780   0.92030   0.01267  Uiso   1.00
H74    H     0.04350   0.84550   0.86380   0.01267  Uiso   1.00
H75    H     0.93360   0.66180   0.85610   0.01267  Uiso   1.00
H76    H     0.11820   0.22160   0.99890   0.01267  Uiso   1.00
H77    H     0.29180   0.26480   0.04750   0.01267  Uiso   1.00
H78    H     0.38560   0.45700   0.04860   0.01267  Uiso   1.00
H79    H     0.90190   0.44310   0.88590   0.01267  Uiso   1.00
H80    H     0.96280   0.29540   0.93610   0.01267  Uiso   1.00
C1     C     0.64670   0.73230   0.10449   0.01267  Uiso   1.00
C2     C     0.64700   0.61240   0.11748   0.01267  Uiso   1.00
C3     C     0.72620   0.57540   0.15451   0.01267  Uiso   1.00
C4     C     0.80600   0.65940   0.17847   0.01267  Uiso   1.00
C5     C     0.80700   0.77980   0.16705   0.01267  Uiso   1.00
C6     C     0.72670   0.81530   0.12991   0.01267  Uiso   1.00
C7     C     0.86080   0.58600   0.26145   0.01267  Uiso   1.00
C8     C     0.74640   0.59180   0.28072   0.01267  Uiso   1.00
C9     C     0.72270   0.55270   0.33064   0.01267  Uiso   1.00
C10    C     0.81120   0.50860   0.36155   0.01267  Uiso   1.00
C11    C     0.92500   0.50400   0.34159   0.01267  Uiso   1.00
C12    C     0.95040   0.54180   0.29178   0.01267  Uiso   1.00
C13    C     0.77970   0.46350   0.41407   0.01267  Uiso   1.00
C14    C     0.90890   0.28290   0.56310   0.01267  Uiso   1.00
C15    C     0.92760   0.22080   0.61412   0.01267  Uiso   1.00
C16    C     0.03860   0.19820   0.63253   0.01267  Uiso   1.00
C17    C     0.05200   0.13980   0.67904   0.01267  Uiso   1.00
C18    C     0.95100   0.10220   0.70671   0.01267  Uiso   1.00
C19    C     0.83910   0.12710   0.68989   0.01267  Uiso   1.00
C20    C     0.82800   0.18660   0.64360   0.01267  Uiso   1.00
C21    C     0.79300   0.16180   0.41700   0.01267  Uiso   1.00
C22    C     0.78070   0.06430   0.38320   0.01267  Uiso   1.00
C23    C     0.67170   0.99910   0.37860   0.01267  Uiso   1.00
C24    C     0.57540   0.03120   0.40803   0.01267  Uiso   1.00
C25    C     0.59790   0.13270   0.44091   0.01267  Uiso   1.00
C26    C     0.50190   0.17290   0.47169   0.01267  Uiso   1.00
C27    C     0.38830   0.11090   0.47010   0.01267  Uiso   1.00
C28    C     0.29860   0.15680   0.49910   0.01267  Uiso   1.00
C29    C     0.32450   0.25990   0.52825   0.01267  Uiso   1.00
C30    C     0.44080   0.31620   0.52873   0.01267  Uiso   1.00
C31    C     0.45860   0.96900   0.40720   0.01267  Uiso   1.00
C32    C     0.37010   0.00610   0.43700   0.01267  Uiso   1.00
C33    C     0.56170   0.77070   0.06284   0.01267  Uiso   1.00
C34    C     0.26770   0.35330   0.39551   0.01267  Uiso   1.00
C35    C     0.38760   0.35300   0.38252   0.01267  Uiso   1.00
C36    C     0.42460   0.27380   0.34549   0.01267  Uiso   1.00
C37    C     0.34060   0.19400   0.32153   0.01267  Uiso   1.00
C38    C     0.22020   0.19300   0.33295   0.01267  Uiso   1.00
C39    C     0.18470   0.27330   0.37009   0.01267  Uiso   1.00
C40    C     0.41400   0.13920   0.23855   0.01267  Uiso   1.00
C41    C     0.40820   0.25360   0.21928   0.01267  Uiso   1.00
C42    C     0.44730   0.27730   0.16936   0.01267  Uiso   1.00
C43    C     0.49140   0.18880   0.13845   0.01267  Uiso   1.00
C44    C     0.49600   0.07500   0.15841   0.01267  Uiso   1.00
C45    C     0.45820   0.04960   0.20822   0.01267  Uiso   1.00
C46    C     0.53650   0.22030   0.08593   0.01267  Uiso   1.00
C47    C     0.71710   0.09110   0.93690   0.01267  Uiso   1.00
C48    C     0.77920   0.07240   0.88588   0.01267  Uiso   1.00
C49    C     0.80180   0.96140   0.86747   0.01267  Uiso   1.00
C50    C     0.86020   0.94800   0.82096   0.01267  Uiso   1.00
C51    C     0.89780   0.04900   0.79329   0.01267  Uiso   1.00
C52    C     0.87290   0.16090   0.81011   0.01267  Uiso   1.00
C53    C     0.81340   0.17200   0.85640   0.01267  Uiso   1.00
C54    C     0.83820   0.20700   0.08300   0.01267  Uiso   1.00
C55    C     0.93570   0.21930   0.11680   0.01267  Uiso   1.00
C56    C     0.00090   0.32830   0.12140   0.01267  Uiso   1.00
C57    C     0.96880   0.42460   0.09197   0.01267  Uiso   1.00
C58    C     0.86730   0.40210   0.05909   0.01267  Uiso   1.00
C59    C     0.82710   0.49810   0.02831   0.01267  Uiso   1.00
C60    C     0.88910   0.61170   0.02990   0.01267  Uiso   1.00
C61    C     0.84320   0.70140   0.00090   0.01267  Uiso   1.00
C62    C     0.74010   0.67550   0.97175   0.01267  Uiso   1.00
C63    C     0.68380   0.55920   0.97127   0.01267  Uiso   1.00
C64    C     0.03100   0.54140   0.09280   0.01267  Uiso   1.00
C65    C     0.99390   0.62990   0.06300   0.01267  Uiso   1.00
C66    C     0.22930   0.43830   0.43716   0.01267  Uiso   1.00
C67    C     0.35330   0.26770   0.89551   0.01267  Uiso   1.00
C68    C     0.35300   0.38760   0.88252   0.01267  Uiso   1.00
C69    C     0.27380   0.42460   0.84549   0.01267  Uiso   1.00
C70    C     0.19400   0.34060   0.82153   0.01267  Uiso   1.00
C71    C     0.19300   0.22020   0.83295   0.01267  Uiso   1.00
C72    C     0.27330   0.18470   0.87009   0.01267  Uiso   1.00
C73    C     0.13920   0.41400   0.73855   0.01267  Uiso   1.00
C74    C     0.25360   0.40820   0.71928   0.01267  Uiso   1.00
C75    C     0.27730   0.44730   0.66936   0.01267  Uiso   1.00
C76    C     0.18880   0.49140   0.63845   0.01267  Uiso   1.00
C77    C     0.07500   0.49600   0.65841   0.01267  Uiso   1.00
C78    C     0.04960   0.45820   0.70822   0.01267  Uiso   1.00
C79    C     0.22030   0.53650   0.58593   0.01267  Uiso   1.00
C80    C     0.09110   0.71710   0.43690   0.01267  Uiso   1.00
C81    C     0.07240   0.77920   0.38588   0.01267  Uiso   1.00
C82    C     0.96140   0.80180   0.36747   0.01267  Uiso   1.00
C83    C     0.94800   0.86020   0.32096   0.01267  Uiso   1.00
C84    C     0.04900   0.89780   0.29329   0.01267  Uiso   1.00
C85    C     0.16090   0.87290   0.31011   0.01267  Uiso   1.00
C86    C     0.17200   0.81340   0.35640   0.01267  Uiso   1.00
C87    C     0.20700   0.83820   0.58300   0.01267  Uiso   1.00
C88    C     0.21930   0.93570   0.61680   0.01267  Uiso   1.00
C89    C     0.32830   0.00090   0.62140   0.01267  Uiso   1.00
C90    C     0.42460   0.96880   0.59197   0.01267  Uiso   1.00
C91    C     0.40210   0.86730   0.55909   0.01267  Uiso   1.00
C92    C     0.49810   0.82710   0.52831   0.01267  Uiso   1.00
C93    C     0.61170   0.88910   0.52990   0.01267  Uiso   1.00
C94    C     0.70140   0.84320   0.50090   0.01267  Uiso   1.00
C95    C     0.67550   0.74010   0.47175   0.01267  Uiso   1.00
C96    C     0.55920   0.68380   0.47127   0.01267  Uiso   1.00
C97    C     0.54140   0.03100   0.59280   0.01267  Uiso   1.00
C98    C     0.62990   0.99390   0.56300   0.01267  Uiso   1.00
C99    C     0.43830   0.22930   0.93716   0.01267  Uiso   1.00
C100   C     0.73230   0.64670   0.60449   0.01267  Uiso   1.00
C101   C     0.61240   0.64700   0.61748   0.01267  Uiso   1.00
C102   C     0.57540   0.72620   0.65451   0.01267  Uiso   1.00
C103   C     0.65940   0.80600   0.67847   0.01267  Uiso   1.00
C104   C     0.77980   0.80700   0.66705   0.01267  Uiso   1.00
C105   C     0.81530   0.72670   0.62991   0.01267  Uiso   1.00
C106   C     0.58600   0.86080   0.76145   0.01267  Uiso   1.00
C107   C     0.59180   0.74640   0.78072   0.01267  Uiso   1.00
C108   C     0.55270   0.72270   0.83064   0.01267  Uiso   1.00
C109   C     0.50860   0.81120   0.86155   0.01267  Uiso   1.00
C110   C     0.50400   0.92500   0.84159   0.01267  Uiso   1.00
C111   C     0.54180   0.95040   0.79178   0.01267  Uiso   1.00
C112   C     0.46350   0.77970   0.91407   0.01267  Uiso   1.00
C113   C     0.28290   0.90890   0.06310   0.01267  Uiso   1.00
C114   C     0.22080   0.92760   0.11412   0.01267  Uiso   1.00
C115   C     0.19820   0.03860   0.13253   0.01267  Uiso   1.00
C116   C     0.13980   0.05200   0.17904   0.01267  Uiso   1.00
C117   C     0.10220   0.95100   0.20671   0.01267  Uiso   1.00
C118   C     0.12710   0.83910   0.18989   0.01267  Uiso   1.00
C119   C     0.18660   0.82800   0.14360   0.01267  Uiso   1.00
C120   C     0.16180   0.79300   0.91700   0.01267  Uiso   1.00
C121   C     0.06430   0.78070   0.88320   0.01267  Uiso   1.00
C122   C     0.99910   0.67170   0.87860   0.01267  Uiso   1.00
C123   C     0.03120   0.57540   0.90803   0.01267  Uiso   1.00
C124   C     0.13270   0.59790   0.94091   0.01267  Uiso   1.00
C125   C     0.17290   0.50190   0.97169   0.01267  Uiso   1.00
C126   C     0.11090   0.38830   0.97010   0.01267  Uiso   1.00
C127   C     0.15680   0.29860   0.99910   0.01267  Uiso   1.00
C128   C     0.25990   0.32450   0.02825   0.01267  Uiso   1.00
C129   C     0.31620   0.44080   0.02873   0.01267  Uiso   1.00
C130   C     0.96900   0.45860   0.90720   0.01267  Uiso   1.00
C131   C     0.00610   0.37010   0.93700   0.01267  Uiso   1.00
C132   C     0.77070   0.56170   0.56284   0.01267  Uiso   1.00
N1     N     0.70450   0.19690   0.44471   0.01267  Uiso   1.00
N2     N     0.52940   0.27420   0.50166   0.01267  Uiso   1.00
N3     N     0.80310   0.29550   0.05529   0.01267  Uiso   1.00
N4     N     0.72580   0.47060   0.99834   0.01267  Uiso   1.00
N5     N     0.29550   0.80310   0.55529   0.01267  Uiso   1.00
N6     N     0.47060   0.72580   0.49834   0.01267  Uiso   1.00
N7     N     0.19690   0.70450   0.94471   0.01267  Uiso   1.00
N8     N     0.27420   0.52940   0.00166   0.01267  Uiso   1.00
O1     O     0.85919   0.43269   0.44563   0.01267  Uiso   1.00
O2     O     0.66959   0.44953   0.42575   0.01267  Uiso   1.00
O3     O     0.80210   0.26870   0.54541   0.01267  Uiso   1.00
O4     O     0.89480   0.62500   0.21258   0.01267  Uiso   1.00
O5     O     0.49016   0.68844   0.04317   0.01267  Uiso   1.00
O6     O     0.56922   0.87986   0.05125   0.01267  Uiso   1.00
O7     O     0.99606   0.34114   0.54295   0.01267  Uiso   1.00
O8     O     0.56731   0.14081   0.05437   0.01267  Uiso   1.00
O9     O     0.55047   0.33041   0.07425   0.01267  Uiso   1.00
O10    O     0.73130   0.19790   0.95459   0.01267  Uiso   1.00
O11    O     0.37500   0.10520   0.28742   0.01267  Uiso   1.00
O12    O     0.31156   0.50984   0.45683   0.01267  Uiso   1.00
O13    O     0.12014   0.43078   0.44875   0.01267  Uiso   1.00
O14    O     0.65886   0.00394   0.95705   0.01267  Uiso   1.00
O15    O     0.14081   0.56731   0.55437   0.01267  Uiso   1.00
O16    O     0.33041   0.55047   0.57425   0.01267  Uiso   1.00
O17    O     0.19790   0.73130   0.45459   0.01267  Uiso   1.00
O18    O     0.10520   0.37500   0.78742   0.01267  Uiso   1.00
O19    O     0.50984   0.31156   0.95683   0.01267  Uiso   1.00
O20    O     0.43078   0.12014   0.94875   0.01267  Uiso   1.00
O21    O     0.00394   0.65886   0.45705   0.01267  Uiso   1.00
O22    O     0.43269   0.85919   0.94563   0.01267  Uiso   1.00
O23    O     0.44953   0.66959   0.92575   0.01267  Uiso   1.00
O24    O     0.26870   0.80210   0.04541   0.01267  Uiso   1.00
O25    O     0.62500   0.89480   0.71258   0.01267  Uiso   1.00
O26    O     0.68844   0.49016   0.54317   0.01267  Uiso   1.00
O27    O     0.87986   0.56922   0.55125   0.01267  Uiso   1.00
O28    O     0.34114   0.99606   0.04295   0.01267  Uiso   1.00
O29    O     0.96750   0.03250   0.75000   0.01267  Uiso   1.00
O30    O     0.03250   0.96750   0.25000   0.01267  Uiso   1.00
