data_GAXGIX_clean
_audit_creation_date              2014-07-02
_audit_creation_method            'Materials Studio'
_symmetry_space_group_name_H-M    'P1'
_symmetry_Int_Tables_number       1
_symmetry_cell_setting            triclinic
loop_
_symmetry_equiv_pos_as_xyz
  x,y,z
_cell_length_a                    11.1275
_cell_length_b                    11.1275
_cell_length_c                    25.8970
_cell_angle_alpha                 91.9143
_cell_angle_beta                  91.9143
_cell_angle_gamma                 100.2300
loop_
_atom_site_label
_atom_site_type_symbol
_atom_site_fract_x
_atom_site_fract_y
_atom_site_fract_z
_atom_site_U_iso_or_equiv
_atom_site_adp_type
_atom_site_occupancy
Mn1    Mn    0.16926   0.81530   0.50813   0.01267  Uiso   1.00
Mn2    Mn    0.18470   0.83074   0.99187   0.01267  Uiso   1.00
Mn3    Mn    0.83074   0.18470   0.49187   0.01267  Uiso   1.00
Mn4    Mn    0.81530   0.16926   0.00813   0.01267  Uiso   1.00
Mn5    Mn    0.00000   0.50000   0.50000   0.01267  Uiso   1.00
Mn6    Mn    0.50000   0.00000   0.00000   0.01267  Uiso   1.00
H1     H     0.92370   0.95090   0.39800   0.01267  Uiso   1.00
H2     H     0.78370   0.00230   0.33820   0.01267  Uiso   1.00
H3     H     0.64890   0.64590   0.30990   0.01267  Uiso   1.00
H4     H     0.78400   0.59540   0.37220   0.01267  Uiso   1.00
H5     H     0.69960   0.24240   0.63140   0.01267  Uiso   1.00
H6     H     0.61650   0.26250   0.71110   0.01267  Uiso   1.00
H7     H     0.61530   0.61630   0.68630   0.01267  Uiso   1.00
H8     H     0.70240   0.59580   0.60740   0.01267  Uiso   1.00
H9     H     0.34090   0.69210   0.58530   0.01267  Uiso   1.00
H10    H     0.52210   0.73890   0.63380   0.01267  Uiso   1.00
H11    H     0.63160   0.93280   0.63660   0.01267  Uiso   1.00
H12    H     0.56470   0.07990   0.58790   0.01267  Uiso   1.00
H13    H     0.47820   0.21580   0.54970   0.01267  Uiso   1.00
H14    H     0.37650   0.34730   0.50510   0.01267  Uiso   1.00
H15    H     0.19550   0.27110   0.45970   0.01267  Uiso   1.00
H16    H     0.12120   0.06520   0.45860   0.01267  Uiso   1.00
H17    H     0.82200   0.87560   0.23630   0.01267  Uiso   1.00
H18    H     0.86190   0.95370   0.15530   0.01267  Uiso   1.00
H19    H     0.52140   0.02220   0.14070   0.01267  Uiso   1.00
H20    H     0.48120   0.94860   0.22240   0.01267  Uiso   1.00
H21    H     0.04910   0.07630   0.10200   0.01267  Uiso   1.00
H22    H     0.99770   0.21630   0.16180   0.01267  Uiso   1.00
H23    H     0.35410   0.35110   0.19010   0.01267  Uiso   1.00
H24    H     0.40460   0.21600   0.12780   0.01267  Uiso   1.00
H25    H     0.75760   0.30040   0.86860   0.01267  Uiso   1.00
H26    H     0.73750   0.38350   0.78890   0.01267  Uiso   1.00
H27    H     0.38370   0.38470   0.81370   0.01267  Uiso   1.00
H28    H     0.40420   0.29760   0.89260   0.01267  Uiso   1.00
H29    H     0.30790   0.65910   0.91470   0.01267  Uiso   1.00
H30    H     0.26110   0.47790   0.86620   0.01267  Uiso   1.00
H31    H     0.06720   0.36840   0.86340   0.01267  Uiso   1.00
H32    H     0.92010   0.43530   0.91210   0.01267  Uiso   1.00
H33    H     0.78420   0.52180   0.95030   0.01267  Uiso   1.00
H34    H     0.65270   0.62350   0.99490   0.01267  Uiso   1.00
H35    H     0.72890   0.80450   0.04030   0.01267  Uiso   1.00
H36    H     0.93480   0.87880   0.04140   0.01267  Uiso   1.00
H37    H     0.12440   0.17800   0.26370   0.01267  Uiso   1.00
H38    H     0.04630   0.13810   0.34470   0.01267  Uiso   1.00
H39    H     0.97780   0.47860   0.35930   0.01267  Uiso   1.00
H40    H     0.05140   0.51880   0.27760   0.01267  Uiso   1.00
H41    H     0.07630   0.04910   0.60200   0.01267  Uiso   1.00
H42    H     0.21630   0.99770   0.66180   0.01267  Uiso   1.00
H43    H     0.35110   0.35410   0.69010   0.01267  Uiso   1.00
H44    H     0.21600   0.40460   0.62780   0.01267  Uiso   1.00
H45    H     0.30040   0.75760   0.36860   0.01267  Uiso   1.00
H46    H     0.38350   0.73750   0.28890   0.01267  Uiso   1.00
H47    H     0.38470   0.38370   0.31370   0.01267  Uiso   1.00
H48    H     0.29760   0.40420   0.39260   0.01267  Uiso   1.00
H49    H     0.65910   0.30790   0.41470   0.01267  Uiso   1.00
H50    H     0.47790   0.26110   0.36620   0.01267  Uiso   1.00
H51    H     0.36840   0.06720   0.36340   0.01267  Uiso   1.00
H52    H     0.43530   0.92010   0.41210   0.01267  Uiso   1.00
H53    H     0.52180   0.78420   0.45030   0.01267  Uiso   1.00
H54    H     0.62350   0.65270   0.49490   0.01267  Uiso   1.00
H55    H     0.80450   0.72890   0.54030   0.01267  Uiso   1.00
H56    H     0.87880   0.93480   0.54140   0.01267  Uiso   1.00
H57    H     0.17800   0.12440   0.76370   0.01267  Uiso   1.00
H58    H     0.13810   0.04630   0.84470   0.01267  Uiso   1.00
H59    H     0.47860   0.97780   0.85930   0.01267  Uiso   1.00
H60    H     0.51880   0.05140   0.77760   0.01267  Uiso   1.00
H61    H     0.95090   0.92370   0.89800   0.01267  Uiso   1.00
H62    H     0.00230   0.78370   0.83820   0.01267  Uiso   1.00
H63    H     0.64590   0.64890   0.80990   0.01267  Uiso   1.00
H64    H     0.59540   0.78400   0.87220   0.01267  Uiso   1.00
H65    H     0.24240   0.69960   0.13140   0.01267  Uiso   1.00
H66    H     0.26250   0.61650   0.21110   0.01267  Uiso   1.00
H67    H     0.61630   0.61530   0.18630   0.01267  Uiso   1.00
H68    H     0.59580   0.70240   0.10740   0.01267  Uiso   1.00
H69    H     0.69210   0.34090   0.08530   0.01267  Uiso   1.00
H70    H     0.73890   0.52210   0.13380   0.01267  Uiso   1.00
H71    H     0.93280   0.63160   0.13660   0.01267  Uiso   1.00
H72    H     0.07990   0.56470   0.08790   0.01267  Uiso   1.00
H73    H     0.21580   0.47820   0.04970   0.01267  Uiso   1.00
H74    H     0.34730   0.37650   0.00510   0.01267  Uiso   1.00
H75    H     0.27110   0.19550   0.95970   0.01267  Uiso   1.00
H76    H     0.06520   0.12120   0.95860   0.01267  Uiso   1.00
H77    H     0.87560   0.82200   0.73630   0.01267  Uiso   1.00
H78    H     0.95370   0.86190   0.65530   0.01267  Uiso   1.00
H79    H     0.02220   0.52140   0.64070   0.01267  Uiso   1.00
H80    H     0.94860   0.48120   0.72240   0.01267  Uiso   1.00
C1     C     0.95560   0.73680   0.43324   0.01267  Uiso   1.00
C2     C     0.86820   0.76820   0.39176   0.01267  Uiso   1.00
C3     C     0.86750   0.88950   0.38084   0.01267  Uiso   1.00
C4     C     0.78450   0.92070   0.34477   0.01267  Uiso   1.00
C5     C     0.70310   0.70710   0.32817   0.01267  Uiso   1.00
C6     C     0.78490   0.67690   0.36516   0.01267  Uiso   1.00
C7     C     0.76440   0.39940   0.55920   0.01267  Uiso   1.00
C8     C     0.70840   0.41640   0.61068   0.01267  Uiso   1.00
C9     C     0.68250   0.31790   0.64242   0.01267  Uiso   1.00
C10    C     0.63180   0.32900   0.68994   0.01267  Uiso   1.00
C11    C     0.60400   0.44160   0.70552   0.01267  Uiso   1.00
C12    C     0.63170   0.54070   0.67510   0.01267  Uiso   1.00
C13    C     0.68370   0.52830   0.62783   0.01267  Uiso   1.00
C14    C     0.38520   0.77140   0.58620   0.01267  Uiso   1.00
C15    C     0.49400   0.79920   0.61520   0.01267  Uiso   1.00
C16    C     0.55940   0.91360   0.61660   0.01267  Uiso   1.00
C17    C     0.51890   0.00150   0.58830   0.01267  Uiso   1.00
C18    C     0.40830   0.97150   0.56028   0.01267  Uiso   1.00
C19    C     0.35440   0.06140   0.53093   0.01267  Uiso   1.00
C20    C     0.40480   0.18600   0.53149   0.01267  Uiso   1.00
C21    C     0.34440   0.26420   0.50470   0.01267  Uiso   1.00
C22    C     0.23750   0.21930   0.47761   0.01267  Uiso   1.00
C23    C     0.19350   0.09590   0.47740   0.01267  Uiso   1.00
C24    C     0.70290   0.82890   0.31870   0.01267  Uiso   1.00
C25    C     0.64680   0.90600   0.23725   0.01267  Uiso   1.00
C26    C     0.76220   0.90580   0.21744   0.01267  Uiso   1.00
C27    C     0.78520   0.95200   0.16873   0.01267  Uiso   1.00
C28    C     0.69630   0.99550   0.13981   0.01267  Uiso   1.00
C29    C     0.58190   0.99370   0.15994   0.01267  Uiso   1.00
C30    C     0.55770   0.94910   0.20884   0.01267  Uiso   1.00
C31    C     0.72710   0.04710   0.08816   0.01267  Uiso   1.00
C32    C     0.26320   0.04440   0.06676   0.01267  Uiso   1.00
C33    C     0.23180   0.13180   0.10824   0.01267  Uiso   1.00
C34    C     0.11050   0.13250   0.11916   0.01267  Uiso   1.00
C35    C     0.07930   0.21550   0.15523   0.01267  Uiso   1.00
C36    C     0.29290   0.29690   0.17183   0.01267  Uiso   1.00
C37    C     0.32310   0.21510   0.13484   0.01267  Uiso   1.00
C38    C     0.60060   0.23560   0.94080   0.01267  Uiso   1.00
C39    C     0.58360   0.29160   0.88932   0.01267  Uiso   1.00
C40    C     0.68210   0.31750   0.85758   0.01267  Uiso   1.00
C41    C     0.67100   0.36820   0.81006   0.01267  Uiso   1.00
C42    C     0.55840   0.39600   0.79448   0.01267  Uiso   1.00
C43    C     0.45930   0.36830   0.82490   0.01267  Uiso   1.00
C44    C     0.47170   0.31630   0.87217   0.01267  Uiso   1.00
C45    C     0.22860   0.61480   0.91380   0.01267  Uiso   1.00
C46    C     0.20080   0.50600   0.88480   0.01267  Uiso   1.00
C47    C     0.08640   0.44060   0.88340   0.01267  Uiso   1.00
C48    C     0.99850   0.48110   0.91170   0.01267  Uiso   1.00
C49    C     0.02850   0.59170   0.93972   0.01267  Uiso   1.00
C50    C     0.93860   0.64560   0.96907   0.01267  Uiso   1.00
C51    C     0.81400   0.59520   0.96851   0.01267  Uiso   1.00
C52    C     0.73580   0.65560   0.99530   0.01267  Uiso   1.00
C53    C     0.78070   0.76250   0.02239   0.01267  Uiso   1.00
C54    C     0.90410   0.80650   0.02260   0.01267  Uiso   1.00
C55    C     0.17110   0.29710   0.18130   0.01267  Uiso   1.00
C56    C     0.09400   0.35320   0.26275   0.01267  Uiso   1.00
C57    C     0.09420   0.23780   0.28256   0.01267  Uiso   1.00
C58    C     0.04800   0.21480   0.33127   0.01267  Uiso   1.00
C59    C     0.00450   0.30370   0.36019   0.01267  Uiso   1.00
C60    C     0.00630   0.41810   0.34006   0.01267  Uiso   1.00
C61    C     0.05090   0.44230   0.29116   0.01267  Uiso   1.00
C62    C     0.95290   0.27290   0.41184   0.01267  Uiso   1.00
C63    C     0.04440   0.26320   0.56676   0.01267  Uiso   1.00
C64    C     0.13180   0.23180   0.60824   0.01267  Uiso   1.00
C65    C     0.13250   0.11050   0.61916   0.01267  Uiso   1.00
C66    C     0.21550   0.07930   0.65523   0.01267  Uiso   1.00
C67    C     0.29690   0.29290   0.67183   0.01267  Uiso   1.00
C68    C     0.21510   0.32310   0.63484   0.01267  Uiso   1.00
C69    C     0.23560   0.60060   0.44080   0.01267  Uiso   1.00
C70    C     0.29160   0.58360   0.38932   0.01267  Uiso   1.00
C71    C     0.31750   0.68210   0.35758   0.01267  Uiso   1.00
C72    C     0.36820   0.67100   0.31006   0.01267  Uiso   1.00
C73    C     0.39600   0.55840   0.29448   0.01267  Uiso   1.00
C74    C     0.36830   0.45930   0.32490   0.01267  Uiso   1.00
C75    C     0.31630   0.47170   0.37217   0.01267  Uiso   1.00
C76    C     0.61480   0.22860   0.41380   0.01267  Uiso   1.00
C77    C     0.50600   0.20080   0.38480   0.01267  Uiso   1.00
C78    C     0.44060   0.08640   0.38340   0.01267  Uiso   1.00
C79    C     0.48110   0.99850   0.41170   0.01267  Uiso   1.00
C80    C     0.59170   0.02850   0.43972   0.01267  Uiso   1.00
C81    C     0.64560   0.93860   0.46907   0.01267  Uiso   1.00
C82    C     0.59520   0.81400   0.46851   0.01267  Uiso   1.00
C83    C     0.65560   0.73580   0.49530   0.01267  Uiso   1.00
C84    C     0.76250   0.78070   0.52239   0.01267  Uiso   1.00
C85    C     0.80650   0.90410   0.52260   0.01267  Uiso   1.00
C86    C     0.29710   0.17110   0.68130   0.01267  Uiso   1.00
C87    C     0.35320   0.09400   0.76275   0.01267  Uiso   1.00
C88    C     0.23780   0.09420   0.78256   0.01267  Uiso   1.00
C89    C     0.21480   0.04800   0.83127   0.01267  Uiso   1.00
C90    C     0.30370   0.00450   0.86019   0.01267  Uiso   1.00
C91    C     0.41810   0.00630   0.84006   0.01267  Uiso   1.00
C92    C     0.44230   0.05090   0.79116   0.01267  Uiso   1.00
C93    C     0.27290   0.95290   0.91184   0.01267  Uiso   1.00
C94    C     0.73680   0.95560   0.93324   0.01267  Uiso   1.00
C95    C     0.76820   0.86820   0.89176   0.01267  Uiso   1.00
C96    C     0.88950   0.86750   0.88084   0.01267  Uiso   1.00
C97    C     0.92070   0.78450   0.84477   0.01267  Uiso   1.00
C98    C     0.70710   0.70310   0.82817   0.01267  Uiso   1.00
C99    C     0.67690   0.78490   0.86516   0.01267  Uiso   1.00
C100   C     0.39940   0.76440   0.05920   0.01267  Uiso   1.00
C101   C     0.41640   0.70840   0.11068   0.01267  Uiso   1.00
C102   C     0.31790   0.68250   0.14242   0.01267  Uiso   1.00
C103   C     0.32900   0.63180   0.18994   0.01267  Uiso   1.00
C104   C     0.44160   0.60400   0.20552   0.01267  Uiso   1.00
C105   C     0.54070   0.63170   0.17510   0.01267  Uiso   1.00
C106   C     0.52830   0.68370   0.12783   0.01267  Uiso   1.00
C107   C     0.77140   0.38520   0.08620   0.01267  Uiso   1.00
C108   C     0.79920   0.49400   0.11520   0.01267  Uiso   1.00
C109   C     0.91360   0.55940   0.11660   0.01267  Uiso   1.00
C110   C     0.00150   0.51890   0.08830   0.01267  Uiso   1.00
C111   C     0.97150   0.40830   0.06028   0.01267  Uiso   1.00
C112   C     0.06140   0.35440   0.03093   0.01267  Uiso   1.00
C113   C     0.18600   0.40480   0.03149   0.01267  Uiso   1.00
C114   C     0.26420   0.34440   0.00470   0.01267  Uiso   1.00
C115   C     0.21930   0.23750   0.97761   0.01267  Uiso   1.00
C116   C     0.09590   0.19350   0.97740   0.01267  Uiso   1.00
C117   C     0.82890   0.70290   0.81870   0.01267  Uiso   1.00
C118   C     0.90600   0.64680   0.73725   0.01267  Uiso   1.00
C119   C     0.90580   0.76220   0.71744   0.01267  Uiso   1.00
C120   C     0.95200   0.78520   0.66873   0.01267  Uiso   1.00
C121   C     0.99550   0.69630   0.63981   0.01267  Uiso   1.00
C122   C     0.99370   0.58190   0.65994   0.01267  Uiso   1.00
C123   C     0.94910   0.55770   0.70884   0.01267  Uiso   1.00
C124   C     0.04710   0.72710   0.58816   0.01267  Uiso   1.00
N1     N     0.34268   0.85692   0.55945   0.01267  Uiso   1.00
N2     N     0.25001   0.01673   0.50323   0.01267  Uiso   1.00
N3     N     0.14308   0.65732   0.94055   0.01267  Uiso   1.00
N4     N     0.98327   0.74999   0.99677   0.01267  Uiso   1.00
N5     N     0.65732   0.14308   0.44055   0.01267  Uiso   1.00
N6     N     0.74999   0.98327   0.49677   0.01267  Uiso   1.00
N7     N     0.85692   0.34268   0.05945   0.01267  Uiso   1.00
N8     N     0.01673   0.25001   0.00323   0.01267  Uiso   1.00
O1     O     0.03467   0.82627   0.45130   0.01267  Uiso   1.00
O2     O     0.74205   0.29133   0.53973   0.01267  Uiso   1.00
O3     O     0.94420   0.62938   0.44671   0.01267  Uiso   1.00
O4     O     0.82867   0.48951   0.53980   0.01267  Uiso   1.00
O5     O     0.61337   0.85743   0.28416   0.01267  Uiso   1.00
O6     O     0.64648   0.08320   0.05935   0.01267  Uiso   1.00
O7     O     0.83636   0.05718   0.07459   0.01267  Uiso   1.00
O8     O     0.17373   0.96533   0.04870   0.01267  Uiso   1.00
O9     O     0.70867   0.25795   0.96027   0.01267  Uiso   1.00
O10    O     0.37062   0.05580   0.05329   0.01267  Uiso   1.00
O11    O     0.51049   0.17133   0.96020   0.01267  Uiso   1.00
O12    O     0.14257   0.38663   0.21584   0.01267  Uiso   1.00
O13    O     0.91680   0.35352   0.44065   0.01267  Uiso   1.00
O14    O     0.94282   0.16364   0.42541   0.01267  Uiso   1.00
O15    O     0.96533   0.17373   0.54870   0.01267  Uiso   1.00
O16    O     0.25795   0.70867   0.46027   0.01267  Uiso   1.00
O17    O     0.05580   0.37062   0.55329   0.01267  Uiso   1.00
O18    O     0.17133   0.51049   0.46020   0.01267  Uiso   1.00
O19    O     0.38663   0.14257   0.71584   0.01267  Uiso   1.00
O20    O     0.35352   0.91680   0.94065   0.01267  Uiso   1.00
O21    O     0.16364   0.94282   0.92541   0.01267  Uiso   1.00
O22    O     0.82627   0.03467   0.95130   0.01267  Uiso   1.00
O23    O     0.29133   0.74205   0.03973   0.01267  Uiso   1.00
O24    O     0.62938   0.94420   0.94671   0.01267  Uiso   1.00
O25    O     0.48951   0.82867   0.03980   0.01267  Uiso   1.00
O26    O     0.85743   0.61337   0.78416   0.01267  Uiso   1.00
O27    O     0.08320   0.64648   0.55935   0.01267  Uiso   1.00
O28    O     0.05718   0.83636   0.57459   0.01267  Uiso   1.00
O29    O     0.54080   0.45920   0.75000   0.01267  Uiso   1.00
O30    O     0.45920   0.54080   0.25000   0.01267  Uiso   1.00
