data_GAXKUN_clean
_audit_creation_date              2014-07-02
_audit_creation_method            'Materials Studio'
_symmetry_space_group_name_H-M    'P1'
_symmetry_Int_Tables_number       1
_symmetry_cell_setting            triclinic
loop_
_symmetry_equiv_pos_as_xyz
  x,y,z
_cell_length_a                    14.4980
_cell_length_b                    14.8990
_cell_length_c                    17.4730
_cell_angle_alpha                 90.0000
_cell_angle_beta                  90.0000
_cell_angle_gamma                 90.0000
loop_
_atom_site_label
_atom_site_type_symbol
_atom_site_fract_x
_atom_site_fract_y
_atom_site_fract_z
_atom_site_U_iso_or_equiv
_atom_site_adp_type
_atom_site_occupancy
Cd1    Cd    0.25000   0.50000   0.15367   0.01267  Uiso   1.00
Cd2    Cd    0.75000   0.00000   0.65367   0.01267  Uiso   1.00
H1     H     0.72770   0.86380   0.79490   0.01267  Uiso   1.00
H2     H     0.80700   0.77930   0.88040   0.01267  Uiso   1.00
H3     H     0.04030   0.87490   0.79160   0.01267  Uiso   1.00
H4     H     0.95400   0.95530   0.70770   0.01267  Uiso   1.00
H5     H     0.89200   0.67000   0.92650   0.01267  Uiso   1.00
H6     H     0.97680   0.58750   0.01360   0.01267  Uiso   1.00
H7     H     0.18880   0.75330   0.98640   0.01267  Uiso   1.00
H8     H     0.10590   0.83550   0.89830   0.01267  Uiso   1.00
H9     H     0.77230   0.13620   0.79490   0.01267  Uiso   1.00
H10    H     0.69300   0.22070   0.88040   0.01267  Uiso   1.00
H11    H     0.45970   0.12510   0.79160   0.01267  Uiso   1.00
H12    H     0.54600   0.04470   0.70770   0.01267  Uiso   1.00
H13    H     0.60800   0.33000   0.92650   0.01267  Uiso   1.00
H14    H     0.52320   0.41250   0.01360   0.01267  Uiso   1.00
H15    H     0.31120   0.24670   0.98640   0.01267  Uiso   1.00
H16    H     0.39410   0.16450   0.89830   0.01267  Uiso   1.00
H17    H     0.22770   0.63620   0.29490   0.01267  Uiso   1.00
H18    H     0.30700   0.72070   0.38040   0.01267  Uiso   1.00
H19    H     0.54030   0.62510   0.29160   0.01267  Uiso   1.00
H20    H     0.45400   0.54470   0.20770   0.01267  Uiso   1.00
H21    H     0.39200   0.83000   0.42650   0.01267  Uiso   1.00
H22    H     0.47680   0.91250   0.51360   0.01267  Uiso   1.00
H23    H     0.68880   0.74670   0.48640   0.01267  Uiso   1.00
H24    H     0.60590   0.66450   0.39830   0.01267  Uiso   1.00
H25    H     0.27230   0.36380   0.29490   0.01267  Uiso   1.00
H26    H     0.19300   0.27930   0.38040   0.01267  Uiso   1.00
H27    H     0.95970   0.37490   0.29160   0.01267  Uiso   1.00
H28    H     0.04600   0.45530   0.20770   0.01267  Uiso   1.00
H29    H     0.10800   0.17000   0.42650   0.01267  Uiso   1.00
H30    H     0.02320   0.08750   0.51360   0.01267  Uiso   1.00
H31    H     0.81120   0.25330   0.48640   0.01267  Uiso   1.00
H32    H     0.89410   0.33550   0.39830   0.01267  Uiso   1.00
C1     C     0.79180   0.86660   0.79450   0.01267  Uiso   1.00
C2     C     0.83940   0.81500   0.84601   0.01267  Uiso   1.00
C3     C     0.93440   0.81500   0.84783   0.01267  Uiso   1.00
C4     C     0.97630   0.87100   0.79370   0.01267  Uiso   1.00
C5     C     0.92370   0.92020   0.74380   0.01267  Uiso   1.00
C6     C     0.98860   0.76260   0.90351   0.01267  Uiso   1.00
C7     C     0.95180   0.68770   0.93830   0.01267  Uiso   1.00
C8     C     0.00300   0.63790   0.99096   0.01267  Uiso   1.00
C9     C     0.09130   0.66230   0.00968   0.01267  Uiso   1.00
C10    C     0.12880   0.73630   0.97460   0.01267  Uiso   1.00
C11    C     0.07880   0.78600   0.92180   0.01267  Uiso   1.00
C12    C     0.14610   0.60750   0.06520   0.01267  Uiso   1.00
C13    C     0.70820   0.13340   0.79450   0.01267  Uiso   1.00
C14    C     0.66060   0.18500   0.84601   0.01267  Uiso   1.00
C15    C     0.56560   0.18500   0.84783   0.01267  Uiso   1.00
C16    C     0.52370   0.12900   0.79370   0.01267  Uiso   1.00
C17    C     0.57630   0.07980   0.74380   0.01267  Uiso   1.00
C18    C     0.51140   0.23740   0.90351   0.01267  Uiso   1.00
C19    C     0.54820   0.31230   0.93830   0.01267  Uiso   1.00
C20    C     0.49700   0.36210   0.99096   0.01267  Uiso   1.00
C21    C     0.40870   0.33770   0.00968   0.01267  Uiso   1.00
C22    C     0.37120   0.26370   0.97460   0.01267  Uiso   1.00
C23    C     0.42120   0.21400   0.92180   0.01267  Uiso   1.00
C24    C     0.35390   0.39250   0.06520   0.01267  Uiso   1.00
C25    C     0.29180   0.63340   0.29450   0.01267  Uiso   1.00
C26    C     0.33940   0.68500   0.34601   0.01267  Uiso   1.00
C27    C     0.43440   0.68500   0.34783   0.01267  Uiso   1.00
C28    C     0.47630   0.62900   0.29370   0.01267  Uiso   1.00
C29    C     0.42370   0.57980   0.24380   0.01267  Uiso   1.00
C30    C     0.48860   0.73740   0.40351   0.01267  Uiso   1.00
C31    C     0.45180   0.81230   0.43830   0.01267  Uiso   1.00
C32    C     0.50300   0.86210   0.49096   0.01267  Uiso   1.00
C33    C     0.59130   0.83770   0.50968   0.01267  Uiso   1.00
C34    C     0.62880   0.76370   0.47460   0.01267  Uiso   1.00
C35    C     0.57880   0.71400   0.42180   0.01267  Uiso   1.00
C36    C     0.64610   0.89250   0.56520   0.01267  Uiso   1.00
C37    C     0.20820   0.36660   0.29450   0.01267  Uiso   1.00
C38    C     0.16060   0.31500   0.34601   0.01267  Uiso   1.00
C39    C     0.06560   0.31500   0.34783   0.01267  Uiso   1.00
C40    C     0.02370   0.37100   0.29370   0.01267  Uiso   1.00
C41    C     0.07630   0.42020   0.24380   0.01267  Uiso   1.00
C42    C     0.01140   0.26260   0.40351   0.01267  Uiso   1.00
C43    C     0.04820   0.18770   0.43830   0.01267  Uiso   1.00
C44    C     0.99700   0.13790   0.49096   0.01267  Uiso   1.00
C45    C     0.90870   0.16230   0.50968   0.01267  Uiso   1.00
C46    C     0.87120   0.23630   0.47460   0.01267  Uiso   1.00
C47    C     0.92120   0.28600   0.42180   0.01267  Uiso   1.00
C48    C     0.85390   0.10750   0.56520   0.01267  Uiso   1.00
N1     N     0.83251   0.92067   0.74364   0.01267  Uiso   1.00
N2     N     0.66749   0.07933   0.74364   0.01267  Uiso   1.00
N3     N     0.33251   0.57933   0.24364   0.01267  Uiso   1.00
N4     N     0.16749   0.42067   0.24364   0.01267  Uiso   1.00
O1     O     0.10977   0.54170   0.09671   0.01267  Uiso   1.00
O2     O     0.22820   0.62750   0.07723   0.01267  Uiso   1.00
O3     O     0.39023   0.45830   0.09671   0.01267  Uiso   1.00
O4     O     0.27180   0.37250   0.07723   0.01267  Uiso   1.00
O5     O     0.60977   0.95830   0.59671   0.01267  Uiso   1.00
O6     O     0.72820   0.87250   0.57723   0.01267  Uiso   1.00
O7     O     0.89023   0.04170   0.59671   0.01267  Uiso   1.00
O8     O     0.77180   0.12750   0.57723   0.01267  Uiso   1.00
Cd3    Cd    0.25000   0.00000   0.34633   0.01267  Uiso   1.00
Cd4    Cd    0.75000   0.50000   0.84633   0.01267  Uiso   1.00
H33    H     0.77230   0.36380   0.70510   0.01267  Uiso   1.00
H34    H     0.69300   0.27930   0.61960   0.01267  Uiso   1.00
H35    H     0.45970   0.37490   0.70840   0.01267  Uiso   1.00
H36    H     0.54600   0.45530   0.79230   0.01267  Uiso   1.00
H37    H     0.60800   0.17000   0.57350   0.01267  Uiso   1.00
H38    H     0.52320   0.08750   0.48640   0.01267  Uiso   1.00
H39    H     0.31120   0.25330   0.51360   0.01267  Uiso   1.00
H40    H     0.39410   0.33550   0.60170   0.01267  Uiso   1.00
H41    H     0.72770   0.63620   0.70510   0.01267  Uiso   1.00
H42    H     0.80700   0.72070   0.61960   0.01267  Uiso   1.00
H43    H     0.04030   0.62510   0.70840   0.01267  Uiso   1.00
H44    H     0.95400   0.54470   0.79230   0.01267  Uiso   1.00
H45    H     0.89200   0.83000   0.57350   0.01267  Uiso   1.00
H46    H     0.97680   0.91250   0.48640   0.01267  Uiso   1.00
H47    H     0.18880   0.74670   0.51360   0.01267  Uiso   1.00
H48    H     0.10590   0.66450   0.60170   0.01267  Uiso   1.00
H49    H     0.27230   0.13620   0.20510   0.01267  Uiso   1.00
H50    H     0.19300   0.22070   0.11960   0.01267  Uiso   1.00
H51    H     0.95970   0.12510   0.20840   0.01267  Uiso   1.00
H52    H     0.04600   0.04470   0.29230   0.01267  Uiso   1.00
H53    H     0.10800   0.33000   0.07350   0.01267  Uiso   1.00
H54    H     0.02320   0.41250   0.98640   0.01267  Uiso   1.00
H55    H     0.81120   0.24670   0.01360   0.01267  Uiso   1.00
H56    H     0.89410   0.16450   0.10170   0.01267  Uiso   1.00
H57    H     0.22770   0.86380   0.20510   0.01267  Uiso   1.00
H58    H     0.30700   0.77930   0.11960   0.01267  Uiso   1.00
H59    H     0.54030   0.87490   0.20840   0.01267  Uiso   1.00
H60    H     0.45400   0.95530   0.29230   0.01267  Uiso   1.00
H61    H     0.39200   0.67000   0.07350   0.01267  Uiso   1.00
H62    H     0.47680   0.58750   0.98640   0.01267  Uiso   1.00
H63    H     0.68880   0.75330   0.01360   0.01267  Uiso   1.00
H64    H     0.60590   0.83550   0.10170   0.01267  Uiso   1.00
C49    C     0.70820   0.36660   0.70550   0.01267  Uiso   1.00
C50    C     0.66060   0.31500   0.65399   0.01267  Uiso   1.00
C51    C     0.56560   0.31500   0.65217   0.01267  Uiso   1.00
C52    C     0.52370   0.37100   0.70630   0.01267  Uiso   1.00
C53    C     0.57630   0.42020   0.75620   0.01267  Uiso   1.00
C54    C     0.51140   0.26260   0.59649   0.01267  Uiso   1.00
C55    C     0.54820   0.18770   0.56170   0.01267  Uiso   1.00
C56    C     0.49700   0.13790   0.50904   0.01267  Uiso   1.00
C57    C     0.40870   0.16230   0.49032   0.01267  Uiso   1.00
C58    C     0.37120   0.23630   0.52540   0.01267  Uiso   1.00
C59    C     0.42120   0.28600   0.57820   0.01267  Uiso   1.00
C60    C     0.35390   0.10750   0.43480   0.01267  Uiso   1.00
C61    C     0.79180   0.63340   0.70550   0.01267  Uiso   1.00
C62    C     0.83940   0.68500   0.65399   0.01267  Uiso   1.00
C63    C     0.93440   0.68500   0.65217   0.01267  Uiso   1.00
C64    C     0.97630   0.62900   0.70630   0.01267  Uiso   1.00
C65    C     0.92370   0.57980   0.75620   0.01267  Uiso   1.00
C66    C     0.98860   0.73740   0.59649   0.01267  Uiso   1.00
C67    C     0.95180   0.81230   0.56170   0.01267  Uiso   1.00
C68    C     0.00300   0.86210   0.50904   0.01267  Uiso   1.00
C69    C     0.09130   0.83770   0.49032   0.01267  Uiso   1.00
C70    C     0.12880   0.76370   0.52540   0.01267  Uiso   1.00
C71    C     0.07880   0.71400   0.57820   0.01267  Uiso   1.00
C72    C     0.14610   0.89250   0.43480   0.01267  Uiso   1.00
C73    C     0.20820   0.13340   0.20550   0.01267  Uiso   1.00
C74    C     0.16060   0.18500   0.15399   0.01267  Uiso   1.00
C75    C     0.06560   0.18500   0.15217   0.01267  Uiso   1.00
C76    C     0.02370   0.12900   0.20630   0.01267  Uiso   1.00
C77    C     0.07630   0.07980   0.25620   0.01267  Uiso   1.00
C78    C     0.01140   0.23740   0.09649   0.01267  Uiso   1.00
C79    C     0.04820   0.31230   0.06170   0.01267  Uiso   1.00
C80    C     0.99700   0.36210   0.00904   0.01267  Uiso   1.00
C81    C     0.90870   0.33770   0.99032   0.01267  Uiso   1.00
C82    C     0.87120   0.26370   0.02540   0.01267  Uiso   1.00
C83    C     0.92120   0.21400   0.07820   0.01267  Uiso   1.00
C84    C     0.85390   0.39250   0.93480   0.01267  Uiso   1.00
C85    C     0.29180   0.86660   0.20550   0.01267  Uiso   1.00
C86    C     0.33940   0.81500   0.15399   0.01267  Uiso   1.00
C87    C     0.43440   0.81500   0.15217   0.01267  Uiso   1.00
C88    C     0.47630   0.87100   0.20630   0.01267  Uiso   1.00
C89    C     0.42370   0.92020   0.25620   0.01267  Uiso   1.00
C90    C     0.48860   0.76260   0.09649   0.01267  Uiso   1.00
C91    C     0.45180   0.68770   0.06170   0.01267  Uiso   1.00
C92    C     0.50300   0.63790   0.00904   0.01267  Uiso   1.00
C93    C     0.59130   0.66230   0.99032   0.01267  Uiso   1.00
C94    C     0.62880   0.73630   0.02540   0.01267  Uiso   1.00
C95    C     0.57880   0.78600   0.07820   0.01267  Uiso   1.00
C96    C     0.64610   0.60750   0.93480   0.01267  Uiso   1.00
N5     N     0.66749   0.42067   0.75636   0.01267  Uiso   1.00
N6     N     0.83251   0.57933   0.75636   0.01267  Uiso   1.00
N7     N     0.16749   0.07933   0.25636   0.01267  Uiso   1.00
N8     N     0.33251   0.92067   0.25636   0.01267  Uiso   1.00
O9     O     0.39023   0.04170   0.40329   0.01267  Uiso   1.00
O10    O     0.27180   0.12750   0.42277   0.01267  Uiso   1.00
O11    O     0.10977   0.95830   0.40329   0.01267  Uiso   1.00
O12    O     0.22820   0.87250   0.42277   0.01267  Uiso   1.00
O13    O     0.89023   0.45830   0.90329   0.01267  Uiso   1.00
O14    O     0.77180   0.37250   0.92277   0.01267  Uiso   1.00
O15    O     0.60977   0.54170   0.90329   0.01267  Uiso   1.00
O16    O     0.72820   0.62750   0.92277   0.01267  Uiso   1.00
