data_GAYFOD_clean
_audit_creation_date              2014-07-02
_audit_creation_method            'Materials Studio'
_symmetry_space_group_name_H-M    'P1'
_symmetry_Int_Tables_number       1
_symmetry_cell_setting            triclinic
loop_
_symmetry_equiv_pos_as_xyz
  x,y,z
_cell_length_a                    7.3007
_cell_length_b                    8.8312
_cell_length_c                    8.8312
_cell_angle_alpha                 90.0000
_cell_angle_beta                  90.0000
_cell_angle_gamma                 90.0000
loop_
_atom_site_label
_atom_site_type_symbol
_atom_site_fract_x
_atom_site_fract_y
_atom_site_fract_z
_atom_site_U_iso_or_equiv
_atom_site_adp_type
_atom_site_occupancy
Zn1    Zn    0.75000   0.00000   0.00000   0.01267  Uiso   1.00
Zn2    Zn    0.25000   0.00000   0.00000   0.01267  Uiso   1.00
H1     H     0.72554   0.38200   0.00000   0.01267  Uiso   1.00
H2     H     0.72554   0.61800   0.00000   0.01267  Uiso   1.00
H3     H     0.22554   0.00000   0.38200   0.01267  Uiso   1.00
H4     H     0.22554   0.00000   0.61800   0.01267  Uiso   1.00
H5     H     0.27446   0.61800   0.00000   0.01267  Uiso   1.00
H6     H     0.27446   0.38200   0.00000   0.01267  Uiso   1.00
H7     H     0.77446   0.00000   0.38200   0.01267  Uiso   1.00
H8     H     0.77446   0.00000   0.61800   0.01267  Uiso   1.00
C1     C     0.00000   0.43928   0.00000   0.01267  Uiso   1.00
C2     C     0.00000   0.56072   0.00000   0.01267  Uiso   1.00
C3     C     0.50000   0.00000   0.43928   0.01267  Uiso   1.00
C4     C     0.50000   0.00000   0.56072   0.01267  Uiso   1.00
C5     C     0.84929   0.34876   0.00000   0.01267  Uiso   1.00
C6     C     0.84929   0.65124   0.00000   0.01267  Uiso   1.00
C7     C     0.34929   0.00000   0.34876   0.01267  Uiso   1.00
C8     C     0.34929   0.00000   0.65124   0.01267  Uiso   1.00
C9     C     0.15071   0.65124   0.00000   0.01267  Uiso   1.00
C10    C     0.15071   0.34876   0.00000   0.01267  Uiso   1.00
C11    C     0.65071   0.00000   0.34876   0.01267  Uiso   1.00
C12    C     0.65071   0.00000   0.65124   0.01267  Uiso   1.00
N1     N     0.90686   0.20230   0.00000   0.01267  Uiso   1.00
N2     N     0.90686   0.79770   0.00000   0.01267  Uiso   1.00
N3     N     0.40686   0.00000   0.20230   0.01267  Uiso   1.00
N4     N     0.40686   0.00000   0.79770   0.01267  Uiso   1.00
N5     N     0.09314   0.79770   0.00000   0.01267  Uiso   1.00
N6     N     0.09314   0.20230   0.00000   0.01267  Uiso   1.00
N7     N     0.59314   0.00000   0.20230   0.01267  Uiso   1.00
N8     N     0.59314   0.00000   0.79770   0.01267  Uiso   1.00
