data_GEDRIS_clean
_audit_creation_date              2014-07-02
_audit_creation_method            'Materials Studio'
_symmetry_space_group_name_H-M    'P1'
_symmetry_Int_Tables_number       1
_symmetry_cell_setting            triclinic
loop_
_symmetry_equiv_pos_as_xyz
  x,y,z
_cell_length_a                    13.2796
_cell_length_b                    14.0687
_cell_length_c                    15.9446
_cell_angle_alpha                 116.1790
_cell_angle_beta                  101.3940
_cell_angle_gamma                 90.0000
loop_
_atom_site_label
_atom_site_type_symbol
_atom_site_fract_x
_atom_site_fract_y
_atom_site_fract_z
_atom_site_U_iso_or_equiv
_atom_site_adp_type
_atom_site_occupancy
Nd1    Nd    0.56004   0.02134   0.63574   0.01267  Uiso   1.00
Nd2    Nd    0.93996   0.38559   0.36424   0.01267  Uiso   1.00
Nd3    Nd    0.43996   0.97865   0.36425   0.01267  Uiso   1.00
Nd4    Nd    0.06004   0.61441   0.63576   0.01267  Uiso   1.00
H1     H     0.42900   0.09960   0.93440   0.01267  Uiso   1.00
H2     H     0.37680   0.20640   0.07420   0.01267  Uiso   1.00
H3     H     0.40280   0.45520   0.01860   0.01267  Uiso   1.00
H4     H     0.46750   0.34920   0.88520   0.01267  Uiso   1.00
H5     H     0.22170   0.45760   0.27000   0.01267  Uiso   1.00
H6     H     0.42150   0.69330   0.30840   0.01267  Uiso   1.00
H7     H     0.29850   0.71350   0.52520   0.01267  Uiso   1.00
H8     H     0.76300   0.23540   0.84760   0.01267  Uiso   1.00
H9     H     0.79470   0.09150   0.59460   0.01267  Uiso   1.00
H10    H     0.92880   0.23630   0.66780   0.01267  Uiso   1.00
H11    H     0.82080   0.95340   0.70500   0.01267  Uiso   1.00
H12    H     0.72660   0.73720   0.76840   0.01267  Uiso   1.00
H13    H     0.58010   0.82680   0.73460   0.01267  Uiso   1.00
H14    H     0.34500   0.36900   0.19000   0.01267  Uiso   1.00
H15    H     0.07100   0.16520   0.06560   0.01267  Uiso   1.00
H16    H     0.12320   0.13220   0.92580   0.01267  Uiso   1.00
H17    H     0.09720   0.43660   0.98140   0.01267  Uiso   1.00
H18    H     0.03250   0.46400   0.11480   0.01267  Uiso   1.00
H19    H     0.27830   0.18760   0.73000   0.01267  Uiso   1.00
H20    H     0.07850   0.38490   0.69160   0.01267  Uiso   1.00
H21    H     0.20150   0.18830   0.47480   0.01267  Uiso   1.00
H22    H     0.73700   0.38780   0.15240   0.01267  Uiso   1.00
H23    H     0.70530   0.49690   0.40540   0.01267  Uiso   1.00
H24    H     0.57120   0.56850   0.33220   0.01267  Uiso   1.00
H25    H     0.67920   0.24840   0.29500   0.01267  Uiso   1.00
H26    H     0.77340   0.96880   0.23160   0.01267  Uiso   1.00
H27    H     0.91990   0.09220   0.26540   0.01267  Uiso   1.00
H28    H     0.15500   0.17900   0.81000   0.01267  Uiso   1.00
H29    H     0.57100   0.90040   0.06560   0.01267  Uiso   1.00
H30    H     0.62320   0.79360   0.92580   0.01267  Uiso   1.00
H31    H     0.59720   0.54480   0.98140   0.01267  Uiso   1.00
H32    H     0.53250   0.65080   0.11480   0.01267  Uiso   1.00
H33    H     0.77830   0.54240   0.73000   0.01267  Uiso   1.00
H34    H     0.57850   0.30670   0.69160   0.01267  Uiso   1.00
H35    H     0.70150   0.28650   0.47480   0.01267  Uiso   1.00
H36    H     0.23700   0.76460   0.15240   0.01267  Uiso   1.00
H37    H     0.20530   0.90850   0.40540   0.01267  Uiso   1.00
H38    H     0.07120   0.76370   0.33220   0.01267  Uiso   1.00
H39    H     0.17920   0.04660   0.29500   0.01267  Uiso   1.00
H40    H     0.27340   0.26280   0.23160   0.01267  Uiso   1.00
H41    H     0.41990   0.17320   0.26540   0.01267  Uiso   1.00
H42    H     0.65500   0.63100   0.81000   0.01267  Uiso   1.00
H43    H     0.92900   0.83480   0.93440   0.01267  Uiso   1.00
H44    H     0.87680   0.86780   0.07420   0.01267  Uiso   1.00
H45    H     0.90280   0.56340   0.01860   0.01267  Uiso   1.00
H46    H     0.96750   0.53600   0.88520   0.01267  Uiso   1.00
H47    H     0.72170   0.81240   0.27000   0.01267  Uiso   1.00
H48    H     0.92150   0.61510   0.30840   0.01267  Uiso   1.00
H49    H     0.79850   0.81170   0.52520   0.01267  Uiso   1.00
H50    H     0.26300   0.61220   0.84760   0.01267  Uiso   1.00
H51    H     0.29470   0.50310   0.59460   0.01267  Uiso   1.00
H52    H     0.42880   0.43150   0.66780   0.01267  Uiso   1.00
H53    H     0.32080   0.75160   0.70500   0.01267  Uiso   1.00
H54    H     0.22660   0.03120   0.76840   0.01267  Uiso   1.00
H55    H     0.08010   0.90780   0.73460   0.01267  Uiso   1.00
H56    H     0.84500   0.82100   0.19000   0.01267  Uiso   1.00
C1     C     0.50160   0.14590   0.81260   0.01267  Uiso   1.00
C2     C     0.45510   0.21360   0.89680   0.01267  Uiso   1.00
C3     C     0.42600   0.17190   0.95240   0.01267  Uiso   1.00
C4     C     0.39230   0.23500   0.03500   0.01267  Uiso   1.00
C5     C     0.38200   0.34130   0.05860   0.01267  Uiso   1.00
C6     C     0.40940   0.38380   0.00280   0.01267  Uiso   1.00
C7     C     0.44730   0.31980   0.92220   0.01267  Uiso   1.00
C8     C     0.35200   0.40880   0.14940   0.01267  Uiso   1.00
C9     C     0.17330   0.53660   0.44280   0.01267  Uiso   1.00
C10    C     0.24690   0.57920   0.40320   0.01267  Uiso   1.00
C11    C     0.25950   0.52320   0.31000   0.01267  Uiso   1.00
C12    C     0.32730   0.56370   0.27580   0.01267  Uiso   1.00
C13    C     0.37970   0.66370   0.33300   0.01267  Uiso   1.00
C14    C     0.36970   0.71920   0.42660   0.01267  Uiso   1.00
C15    C     0.30400   0.67640   0.46180   0.01267  Uiso   1.00
C16    C     0.43150   0.82400   0.49420   0.01267  Uiso   1.00
C17    C     0.78400   0.21630   0.79060   0.01267  Uiso   1.00
C18    C     0.80200   0.14190   0.65780   0.01267  Uiso   1.00
C19    C     0.88000   0.22090   0.69580   0.01267  Uiso   1.00
C20    C     0.77830   0.91000   0.71660   0.01267  Uiso   1.00
C21    C     0.72890   0.79270   0.75140   0.01267  Uiso   1.00
C22    C     0.64700   0.84240   0.73240   0.01267  Uiso   1.00
C23    C     0.99840   0.33330   0.18740   0.01267  Uiso   1.00
C24    C     0.04490   0.31680   0.10320   0.01267  Uiso   1.00
C25    C     0.07400   0.21950   0.04760   0.01267  Uiso   1.00
C26    C     0.10770   0.20000   0.96500   0.01267  Uiso   1.00
C27    C     0.11800   0.28270   0.94140   0.01267  Uiso   1.00
C28    C     0.09060   0.38100   0.99720   0.01267  Uiso   1.00
C29    C     0.05270   0.39760   0.07780   0.01267  Uiso   1.00
C30    C     0.14800   0.25940   0.85060   0.01267  Uiso   1.00
C31    C     0.32670   0.09380   0.55720   0.01267  Uiso   1.00
C32    C     0.25310   0.17600   0.59680   0.01267  Uiso   1.00
C33    C     0.24050   0.21320   0.69000   0.01267  Uiso   1.00
C34    C     0.17270   0.28790   0.72420   0.01267  Uiso   1.00
C35    C     0.12030   0.33070   0.66700   0.01267  Uiso   1.00
C36    C     0.13030   0.29260   0.57340   0.01267  Uiso   1.00
C37    C     0.19600   0.21460   0.53820   0.01267  Uiso   1.00
C38    C     0.06850   0.32980   0.50580   0.01267  Uiso   1.00
C39    C     0.71600   0.42570   0.20940   0.01267  Uiso   1.00
C40    C     0.69800   0.48410   0.34220   0.01267  Uiso   1.00
C41    C     0.62000   0.52510   0.30420   0.01267  Uiso   1.00
C42    C     0.72170   0.19340   0.28340   0.01267  Uiso   1.00
C43    C     0.77110   0.04130   0.24860   0.01267  Uiso   1.00
C44    C     0.85300   0.11000   0.26760   0.01267  Uiso   1.00
C45    C     0.49840   0.85410   0.18740   0.01267  Uiso   1.00
C46    C     0.54490   0.78640   0.10320   0.01267  Uiso   1.00
C47    C     0.57400   0.82810   0.04760   0.01267  Uiso   1.00
C48    C     0.60770   0.76500   0.96500   0.01267  Uiso   1.00
C49    C     0.61800   0.65870   0.94140   0.01267  Uiso   1.00
C50    C     0.59060   0.61620   0.99720   0.01267  Uiso   1.00
C51    C     0.55270   0.68020   0.07780   0.01267  Uiso   1.00
C52    C     0.64800   0.59120   0.85060   0.01267  Uiso   1.00
C53    C     0.82670   0.46340   0.55720   0.01267  Uiso   1.00
C54    C     0.75310   0.42080   0.59680   0.01267  Uiso   1.00
C55    C     0.74050   0.47680   0.69000   0.01267  Uiso   1.00
C56    C     0.67270   0.43630   0.72420   0.01267  Uiso   1.00
C57    C     0.62030   0.33630   0.66700   0.01267  Uiso   1.00
C58    C     0.63030   0.28080   0.57340   0.01267  Uiso   1.00
C59    C     0.69600   0.32360   0.53820   0.01267  Uiso   1.00
C60    C     0.56850   0.17600   0.50580   0.01267  Uiso   1.00
C61    C     0.21600   0.78370   0.20940   0.01267  Uiso   1.00
C62    C     0.19800   0.85810   0.34220   0.01267  Uiso   1.00
C63    C     0.12000   0.77910   0.30420   0.01267  Uiso   1.00
C64    C     0.22170   0.09000   0.28340   0.01267  Uiso   1.00
C65    C     0.27110   0.20730   0.24860   0.01267  Uiso   1.00
C66    C     0.35300   0.15760   0.26760   0.01267  Uiso   1.00
C67    C     0.00160   0.66670   0.81260   0.01267  Uiso   1.00
C68    C     0.95510   0.68320   0.89680   0.01267  Uiso   1.00
C69    C     0.92600   0.78050   0.95240   0.01267  Uiso   1.00
C70    C     0.89230   0.80000   0.03500   0.01267  Uiso   1.00
C71    C     0.88200   0.71730   0.05860   0.01267  Uiso   1.00
C72    C     0.90940   0.61900   0.00280   0.01267  Uiso   1.00
C73    C     0.94730   0.60240   0.92220   0.01267  Uiso   1.00
C74    C     0.85200   0.74060   0.14940   0.01267  Uiso   1.00
C75    C     0.67330   0.90620   0.44280   0.01267  Uiso   1.00
C76    C     0.74690   0.82400   0.40320   0.01267  Uiso   1.00
C77    C     0.75950   0.78680   0.31000   0.01267  Uiso   1.00
C78    C     0.82730   0.71210   0.27580   0.01267  Uiso   1.00
C79    C     0.87970   0.66930   0.33300   0.01267  Uiso   1.00
C80    C     0.86970   0.70740   0.42660   0.01267  Uiso   1.00
C81    C     0.80400   0.78540   0.46180   0.01267  Uiso   1.00
C82    C     0.93150   0.67020   0.49420   0.01267  Uiso   1.00
C83    C     0.28400   0.57430   0.79060   0.01267  Uiso   1.00
C84    C     0.30200   0.51590   0.65780   0.01267  Uiso   1.00
C85    C     0.38000   0.47490   0.69580   0.01267  Uiso   1.00
C86    C     0.27830   0.80660   0.71660   0.01267  Uiso   1.00
C87    C     0.22890   0.95870   0.75140   0.01267  Uiso   1.00
C88    C     0.14700   0.89000   0.73240   0.01267  Uiso   1.00
N1     N     0.34990   0.50580   0.18220   0.01267  Uiso   1.00
N2     N     0.73380   0.13430   0.70780   0.01267  Uiso   1.00
N3     N     0.86570   0.27030   0.78640   0.01267  Uiso   1.00
N4     N     0.67700   0.91840   0.71000   0.01267  Uiso   1.00
N5     N     0.81450   0.83460   0.74160   0.01267  Uiso   1.00
N6     N     0.15010   0.32360   0.81780   0.01267  Uiso   1.00
N7     N     0.76620   0.42650   0.29220   0.01267  Uiso   1.00
N8     N     0.63430   0.48390   0.21360   0.01267  Uiso   1.00
N9     N     0.82300   0.20840   0.29000   0.01267  Uiso   1.00
N10    N     0.68550   0.09300   0.25840   0.01267  Uiso   1.00
N11    N     0.65010   0.49420   0.81780   0.01267  Uiso   1.00
N12    N     0.26620   0.86570   0.29220   0.01267  Uiso   1.00
N13    N     0.13430   0.72970   0.21360   0.01267  Uiso   1.00
N14    N     0.32300   0.08160   0.29000   0.01267  Uiso   1.00
N15    N     0.18550   0.16540   0.25840   0.01267  Uiso   1.00
N16    N     0.84990   0.67640   0.18220   0.01267  Uiso   1.00
N17    N     0.23380   0.57350   0.70780   0.01267  Uiso   1.00
N18    N     0.36570   0.51610   0.78640   0.01267  Uiso   1.00
N19    N     0.17700   0.79160   0.71000   0.01267  Uiso   1.00
N20    N     0.31450   0.90700   0.74160   0.01267  Uiso   1.00
O1     O     0.49480   0.04718   0.78256   0.01267  Uiso   1.00
O2     O     0.54450   0.19080   0.77600   0.01267  Uiso   1.00
O3     O     0.11920   0.45072   0.38584   0.01267  Uiso   1.00
O4     O     0.17250   0.59062   0.52904   0.01267  Uiso   1.00
O5     O     0.45770   0.88338   0.45916   0.01267  Uiso   1.00
O6     O     0.45570   0.84995   0.58110   0.01267  Uiso   1.00
O7     O     0.00520   0.26462   0.21744   0.01267  Uiso   1.00
O8     O     0.95550   0.41480   0.22400   0.01267  Uiso   1.00
O9     O     0.38080   0.06488   0.61416   0.01267  Uiso   1.00
O10    O     0.32750   0.06158   0.47096   0.01267  Uiso   1.00
O11    O     0.04230   0.42422   0.54084   0.01267  Uiso   1.00
O12    O     0.04430   0.26885   0.41890   0.01267  Uiso   1.00
O13    O     0.50520   0.95282   0.21744   0.01267  Uiso   1.00
O14    O     0.45550   0.80920   0.22400   0.01267  Uiso   1.00
O15    O     0.88080   0.54928   0.61416   0.01267  Uiso   1.00
O16    O     0.82750   0.40938   0.47096   0.01267  Uiso   1.00
O17    O     0.54230   0.11662   0.54084   0.01267  Uiso   1.00
O18    O     0.54430   0.15005   0.41890   0.01267  Uiso   1.00
O19    O     0.99480   0.73538   0.78256   0.01267  Uiso   1.00
O20    O     0.04450   0.58520   0.77600   0.01267  Uiso   1.00
O21    O     0.61920   0.93512   0.38584   0.01267  Uiso   1.00
O22    O     0.67250   0.93842   0.52904   0.01267  Uiso   1.00
O23    O     0.95770   0.57578   0.45916   0.01267  Uiso   1.00
O24    O     0.95570   0.73115   0.58110   0.01267  Uiso   1.00
