data_GETXEK_clean
_audit_creation_date              2014-07-02
_audit_creation_method            'Materials Studio'
_symmetry_space_group_name_H-M    'P1'
_symmetry_Int_Tables_number       1
_symmetry_cell_setting            triclinic
loop_
_symmetry_equiv_pos_as_xyz
  x,y,z
_cell_length_a                    12.8720
_cell_length_b                    13.6800
_cell_length_c                    16.1170
_cell_angle_alpha                 81.3630
_cell_angle_beta                  88.0650
_cell_angle_gamma                 63.7790
loop_
_atom_site_label
_atom_site_type_symbol
_atom_site_fract_x
_atom_site_fract_y
_atom_site_fract_z
_atom_site_U_iso_or_equiv
_atom_site_adp_type
_atom_site_occupancy
Cd1    Cd    0.61512   0.98562   0.91419   0.01267  Uiso   1.00
Cd2    Cd    0.38488   0.01438   0.08581   0.01267  Uiso   1.00
H1     H     0.81860   0.88340   0.06540   0.01267  Uiso   1.00
H2     H     0.00410   0.80610   0.12130   0.01267  Uiso   1.00
H3     H     0.88390   0.78750   0.35180   0.01267  Uiso   1.00
H4     H     0.69790   0.86900   0.29610   0.01267  Uiso   1.00
H5     H     0.13500   0.83950   0.21330   0.01267  Uiso   1.00
H6     H     0.32230   0.76110   0.26480   0.01267  Uiso   1.00
H7     H     0.38950   0.60340   0.36240   0.01267  Uiso   1.00
H8     H     0.26800   0.52570   0.40980   0.01267  Uiso   1.00
H9     H     0.78830   0.73480   0.96140   0.01267  Uiso   1.00
H10    H     0.82440   0.55820   0.94970   0.01267  Uiso   1.00
H11    H     0.52360   0.68100   0.82630   0.01267  Uiso   1.00
H12    H     0.49510   0.85250   0.84550   0.01267  Uiso   1.00
H13    H     0.77350   0.43100   0.88060   0.01267  Uiso   1.00
H14    H     0.66220   0.48460   0.82070   0.01267  Uiso   1.00
H15    H     0.66450   0.45050   0.99400   0.01267  Uiso   1.00
H16    H     0.55090   0.51480   0.93790   0.01267  Uiso   1.00
H17    H     0.45410   0.24500   0.89180   0.01267  Uiso   1.00
H18    H     0.76660   0.08670   0.98600   0.01267  Uiso   1.00
H19    H     0.78160   0.24500   0.98920   0.01267  Uiso   1.00
H20    H     0.45970   0.41030   0.88890   0.01267  Uiso   1.00
H21    H     0.18140   0.11660   0.93460   0.01267  Uiso   1.00
H22    H     0.99590   0.19390   0.87870   0.01267  Uiso   1.00
H23    H     0.11610   0.21250   0.64820   0.01267  Uiso   1.00
H24    H     0.30210   0.13100   0.70390   0.01267  Uiso   1.00
H25    H     0.86500   0.16050   0.78670   0.01267  Uiso   1.00
H26    H     0.67770   0.23890   0.73520   0.01267  Uiso   1.00
H27    H     0.61050   0.39660   0.63760   0.01267  Uiso   1.00
H28    H     0.73200   0.47430   0.59020   0.01267  Uiso   1.00
H29    H     0.21170   0.26520   0.03860   0.01267  Uiso   1.00
H30    H     0.17560   0.44180   0.05030   0.01267  Uiso   1.00
H31    H     0.47640   0.31900   0.17370   0.01267  Uiso   1.00
H32    H     0.50490   0.14750   0.15450   0.01267  Uiso   1.00
H33    H     0.22650   0.56900   0.11940   0.01267  Uiso   1.00
H34    H     0.33780   0.51540   0.17930   0.01267  Uiso   1.00
H35    H     0.33550   0.54950   0.00600   0.01267  Uiso   1.00
H36    H     0.44910   0.48520   0.06210   0.01267  Uiso   1.00
H37    H     0.54590   0.75500   0.10820   0.01267  Uiso   1.00
H38    H     0.23340   0.91330   0.01400   0.01267  Uiso   1.00
H39    H     0.21840   0.75500   0.01080   0.01267  Uiso   1.00
H40    H     0.54030   0.58970   0.11110   0.01267  Uiso   1.00
C1     C     0.61800   0.92630   0.13890   0.01267  Uiso   1.00
C2     C     0.73870   0.88220   0.17410   0.01267  Uiso   1.00
C3     C     0.83130   0.86370   0.12330   0.01267  Uiso   1.00
C4     C     0.94290   0.81640   0.15690   0.01267  Uiso   1.00
C5     C     0.96510   0.78430   0.24190   0.01267  Uiso   1.00
C6     C     0.87110   0.80610   0.29390   0.01267  Uiso   1.00
C7     C     0.75970   0.85460   0.26050   0.01267  Uiso   1.00
C8     C     0.08550   0.72940   0.27710   0.01267  Uiso   1.00
C9     C     0.16140   0.77530   0.25220   0.01267  Uiso   1.00
C10    C     0.27360   0.72910   0.28320   0.01267  Uiso   1.00
C11    C     0.31340   0.63520   0.34140   0.01267  Uiso   1.00
C12    C     0.24110   0.58790   0.36900   0.01267  Uiso   1.00
C13    C     0.12710   0.63290   0.33570   0.01267  Uiso   1.00
C14    C     0.05730   0.57090   0.36340   0.01267  Uiso   1.00
C15    C     0.73330   0.72420   0.93290   0.01267  Uiso   1.00
C16    C     0.75690   0.61690   0.92530   0.01267  Uiso   1.00
C17    C     0.68080   0.59870   0.88210   0.01267  Uiso   1.00
C18    C     0.58100   0.68920   0.85380   0.01267  Uiso   1.00
C19    C     0.56440   0.79260   0.86560   0.01267  Uiso   1.00
C20    C     0.69260   0.48430   0.87510   0.01267  Uiso   1.00
C21    C     0.62890   0.45560   0.94050   0.01267  Uiso   1.00
C22    C     0.52140   0.24510   0.91090   0.01267  Uiso   1.00
C23    C     0.70360   0.15330   0.96630   0.01267  Uiso   1.00
C24    C     0.71400   0.24750   0.96810   0.01267  Uiso   1.00
C25    C     0.62130   0.34790   0.93780   0.01267  Uiso   1.00
C26    C     0.52380   0.34510   0.90930   0.01267  Uiso   1.00
C27    C     0.38200   0.07370   0.86110   0.01267  Uiso   1.00
C28    C     0.26130   0.11780   0.82590   0.01267  Uiso   1.00
C29    C     0.16870   0.13630   0.87670   0.01267  Uiso   1.00
C30    C     0.05710   0.18360   0.84310   0.01267  Uiso   1.00
C31    C     0.03490   0.21570   0.75810   0.01267  Uiso   1.00
C32    C     0.12890   0.19390   0.70610   0.01267  Uiso   1.00
C33    C     0.24030   0.14540   0.73950   0.01267  Uiso   1.00
C34    C     0.91450   0.27060   0.72290   0.01267  Uiso   1.00
C35    C     0.83860   0.22470   0.74780   0.01267  Uiso   1.00
C36    C     0.72640   0.27090   0.71680   0.01267  Uiso   1.00
C37    C     0.68660   0.36480   0.65860   0.01267  Uiso   1.00
C38    C     0.75890   0.41210   0.63100   0.01267  Uiso   1.00
C39    C     0.87290   0.36710   0.66430   0.01267  Uiso   1.00
C40    C     0.94270   0.42910   0.63660   0.01267  Uiso   1.00
C41    C     0.26670   0.27580   0.06710   0.01267  Uiso   1.00
C42    C     0.24310   0.38310   0.07470   0.01267  Uiso   1.00
C43    C     0.31920   0.40130   0.11790   0.01267  Uiso   1.00
C44    C     0.41900   0.31080   0.14620   0.01267  Uiso   1.00
C45    C     0.43560   0.20740   0.13440   0.01267  Uiso   1.00
C46    C     0.30740   0.51570   0.12490   0.01267  Uiso   1.00
C47    C     0.37110   0.54440   0.05950   0.01267  Uiso   1.00
C48    C     0.47860   0.75490   0.08910   0.01267  Uiso   1.00
C49    C     0.29640   0.84670   0.03370   0.01267  Uiso   1.00
C50    C     0.28600   0.75250   0.03190   0.01267  Uiso   1.00
C51    C     0.37870   0.65210   0.06220   0.01267  Uiso   1.00
C52    C     0.47620   0.65490   0.09070   0.01267  Uiso   1.00
N1     N     0.64060   0.81110   0.90340   0.01267  Uiso   1.00
N2     N     0.60950   0.14970   0.93810   0.01267  Uiso   1.00
N3     N     0.35940   0.18890   0.09660   0.01267  Uiso   1.00
N4     N     0.39050   0.85030   0.06190   0.01267  Uiso   1.00
O1     O     0.59940   0.94460   0.06038   0.01267  Uiso   1.00
O2     O     0.53610   0.94370   0.18730   0.01267  Uiso   1.00
O3     O     0.04820   0.54350   0.44004   0.01267  Uiso   1.00
O4     O     0.01190   0.54320   0.30928   0.01267  Uiso   1.00
O5     O     0.40060   0.05540   0.93962   0.01267  Uiso   1.00
O6     O     0.46390   0.05630   0.81270   0.01267  Uiso   1.00
O7     O     0.95180   0.45650   0.55996   0.01267  Uiso   1.00
O8     O     0.98810   0.45680   0.69072   0.01267  Uiso   1.00
