data_GIFKIP_clean
_audit_creation_date              2014-07-02
_audit_creation_method            'Materials Studio'
_symmetry_space_group_name_H-M    'P1'
_symmetry_Int_Tables_number       1
_symmetry_cell_setting            triclinic
loop_
_symmetry_equiv_pos_as_xyz
  x,y,z
_cell_length_a                    7.1220
_cell_length_b                    7.6130
_cell_length_c                    9.6280
_cell_angle_alpha                 90.0000
_cell_angle_beta                  100.0100
_cell_angle_gamma                 90.0000
loop_
_atom_site_label
_atom_site_type_symbol
_atom_site_fract_x
_atom_site_fract_y
_atom_site_fract_z
_atom_site_U_iso_or_equiv
_atom_site_adp_type
_atom_site_occupancy
Cd1    Cd    0.00000   0.00000   0.00000   0.01267  Uiso   1.00
Ni1    Ni    0.50000   0.50000   0.00000   0.01267  Uiso   1.00
H1     H     0.98969   0.11544   0.71312   0.01267  Uiso   1.00
H2     H     0.33003   0.88456   0.79833   0.01267  Uiso   1.00
H3     H     0.20922   0.11544   0.54321   0.01267  Uiso   1.00
H4     H     0.55597   0.88456   0.62766   0.01267  Uiso   1.00
H5     H     0.01031   0.11544   0.28688   0.01267  Uiso   1.00
H6     H     0.66997   0.88456   0.20167   0.01267  Uiso   1.00
H7     H     0.79078   0.11544   0.45679   0.01267  Uiso   1.00
H8     H     0.44403   0.88456   0.37234   0.01267  Uiso   1.00
H9     H     0.01031   0.88456   0.28688   0.01267  Uiso   1.00
H10    H     0.66997   0.11544   0.20167   0.01267  Uiso   1.00
H11    H     0.79078   0.88456   0.45679   0.01267  Uiso   1.00
H12    H     0.44403   0.11544   0.37234   0.01267  Uiso   1.00
H13    H     0.98969   0.88456   0.71312   0.01267  Uiso   1.00
H14    H     0.33003   0.11544   0.79833   0.01267  Uiso   1.00
H15    H     0.20922   0.88456   0.54321   0.01267  Uiso   1.00
H16    H     0.55597   0.11544   0.62766   0.01267  Uiso   1.00
C1     C     0.66550   0.67190   0.95880   0.01267  Uiso   1.00
C2     C     0.33450   0.67190   0.04120   0.01267  Uiso   1.00
C3     C     0.33450   0.32810   0.04120   0.01267  Uiso   1.00
C4     C     0.66550   0.32810   0.95880   0.01267  Uiso   1.00
C5     C     0.25870   0.00000   0.74810   0.01267  Uiso   1.00
C6     C     0.27890   0.00000   0.59400   0.01267  Uiso   1.00
C7     C     0.48660   0.00000   0.57630   0.01267  Uiso   1.00
C8     C     0.74130   0.00000   0.25190   0.01267  Uiso   1.00
C9     C     0.72110   0.00000   0.40600   0.01267  Uiso   1.00
C10    C     0.51340   0.00000   0.42370   0.01267  Uiso   1.00
N1     N     0.77130   0.77900   0.93840   0.01267  Uiso   1.00
N2     N     0.22870   0.77900   0.06160   0.01267  Uiso   1.00
N3     N     0.22870   0.22100   0.06160   0.01267  Uiso   1.00
N4     N     0.77130   0.22100   0.93840   0.01267  Uiso   1.00
N5     N     0.05750   0.00000   0.77070   0.01267  Uiso   1.00
N6     N     0.94250   0.00000   0.22930   0.01267  Uiso   1.00
