data_GIFKAH_clean
_audit_creation_date              2014-07-02
_audit_creation_method            'Materials Studio'
_symmetry_space_group_name_H-M    'P1'
_symmetry_Int_Tables_number       1
_symmetry_cell_setting            triclinic
loop_
_symmetry_equiv_pos_as_xyz
  x,y,z
_cell_length_a                    7.1770
_cell_length_b                    7.5980
_cell_length_c                    9.7250
_cell_angle_alpha                 95.7000
_cell_angle_beta                  98.8000
_cell_angle_gamma                 90.4400
loop_
_atom_site_label
_atom_site_type_symbol
_atom_site_fract_x
_atom_site_fract_y
_atom_site_fract_z
_atom_site_U_iso_or_equiv
_atom_site_adp_type
_atom_site_occupancy
Cd1    Cd    0.00000   0.00000   0.00000   0.01267  Uiso   1.00
Ni1    Ni    0.50000   0.50000   0.00000   0.01267  Uiso   1.00
H1     H     0.00378   0.89926   0.69311   0.01267  Uiso   1.00
H2     H     0.29274   0.90341   0.81320   0.01267  Uiso   1.00
H3     H     0.21650   0.88763   0.53130   0.01267  Uiso   1.00
H4     H     0.55221   0.13481   0.63607   0.01267  Uiso   1.00
H5     H     0.52202   0.88771   0.64884   0.01267  Uiso   1.00
H6     H     0.99622   0.10074   0.30689   0.01267  Uiso   1.00
H7     H     0.70726   0.09659   0.18680   0.01267  Uiso   1.00
H8     H     0.78350   0.11237   0.46870   0.01267  Uiso   1.00
H9     H     0.44779   0.86519   0.36393   0.01267  Uiso   1.00
H10    H     0.47798   0.11229   0.35116   0.01267  Uiso   1.00
C1     C     0.66640   0.32170   0.96460   0.01267  Uiso   1.00
C2     C     0.66660   0.66750   0.95740   0.01267  Uiso   1.00
C3     C     0.25850   0.97780   0.74630   0.01267  Uiso   1.00
C4     C     0.27820   0.98680   0.59380   0.01267  Uiso   1.00
C5     C     0.48980   0.99260   0.57720   0.01267  Uiso   1.00
C6     C     0.33360   0.67830   0.03540   0.01267  Uiso   1.00
C7     C     0.33340   0.33250   0.04260   0.01267  Uiso   1.00
C8     C     0.74150   0.02220   0.25370   0.01267  Uiso   1.00
C9     C     0.72180   0.01320   0.40620   0.01267  Uiso   1.00
C10    C     0.51020   0.00740   0.42280   0.01267  Uiso   1.00
N1     N     0.77120   0.21320   0.94740   0.01267  Uiso   1.00
N2     N     0.77180   0.77030   0.93650   0.01267  Uiso   1.00
N3     N     0.06030   0.98220   0.77120   0.01267  Uiso   1.00
N4     N     0.22880   0.78680   0.05260   0.01267  Uiso   1.00
N5     N     0.22820   0.22970   0.06350   0.01267  Uiso   1.00
N6     N     0.93970   0.01780   0.22880   0.01267  Uiso   1.00
