data_GIHBII_clean
_audit_creation_date              2014-07-02
_audit_creation_method            'Materials Studio'
_symmetry_space_group_name_H-M    'P1'
_symmetry_Int_Tables_number       1
_symmetry_cell_setting            triclinic
loop_
_symmetry_equiv_pos_as_xyz
  x,y,z
_cell_length_a                    8.6690
_cell_length_b                    9.0970
_cell_length_c                    17.9320
_cell_angle_alpha                 90.0000
_cell_angle_beta                  90.0000
_cell_angle_gamma                 108.3200
loop_
_atom_site_label
_atom_site_type_symbol
_atom_site_fract_x
_atom_site_fract_y
_atom_site_fract_z
_atom_site_U_iso_or_equiv
_atom_site_adp_type
_atom_site_occupancy
Ga1    Ga    0.86730   0.33400   0.39180   0.01267  Uiso   1.00
Ga2    Ga    0.93080   0.20070   0.20620   0.01267  Uiso   1.00
Ga3    Ga    0.48700   0.30100   0.17430   0.01267  Uiso   1.00
Ga4    Ga    0.63270   0.16600   0.89180   0.01267  Uiso   1.00
Ga5    Ga    0.56920   0.29930   0.70620   0.01267  Uiso   1.00
Ga6    Ga    0.01300   0.19900   0.67430   0.01267  Uiso   1.00
Ga7    Ga    0.13270   0.66600   0.60820   0.01267  Uiso   1.00
Ga8    Ga    0.06920   0.79930   0.79380   0.01267  Uiso   1.00
Ga9    Ga    0.51300   0.69900   0.82570   0.01267  Uiso   1.00
Ga10   Ga    0.36730   0.83400   0.10820   0.01267  Uiso   1.00
Ga11   Ga    0.43080   0.70070   0.29380   0.01267  Uiso   1.00
Ga12   Ga    0.98700   0.80100   0.32570   0.01267  Uiso   1.00
P1     P     0.66050   0.12820   0.07020   0.01267  Uiso   1.00
P2     P     0.70170   0.51770   0.28740   0.01267  Uiso   1.00
P3     P     0.74610   0.99300   0.33600   0.01267  Uiso   1.00
P4     P     0.83950   0.37180   0.57020   0.01267  Uiso   1.00
P5     P     0.79830   0.98230   0.78740   0.01267  Uiso   1.00
P6     P     0.75390   0.50700   0.83600   0.01267  Uiso   1.00
P7     P     0.33950   0.87180   0.92980   0.01267  Uiso   1.00
P8     P     0.29830   0.48230   0.71260   0.01267  Uiso   1.00
P9     P     0.25390   0.00700   0.66400   0.01267  Uiso   1.00
P10    P     0.16050   0.62820   0.42980   0.01267  Uiso   1.00
P11    P     0.20170   0.01770   0.21260   0.01267  Uiso   1.00
P12    P     0.24610   0.49300   0.16400   0.01267  Uiso   1.00
O1     O     0.89420   0.94340   0.35640   0.01267  Uiso   1.00
O2     O     0.75090   0.12520   0.39040   0.01267  Uiso   1.00
O3     O     0.71960   0.16760   0.99150   0.01267  Uiso   1.00
O4     O     0.73430   0.44540   0.35890   0.01267  Uiso   1.00
O5     O     0.80870   0.17840   0.11970   0.01267  Uiso   1.00
O6     O     0.57590   0.95340   0.07770   0.01267  Uiso   1.00
O7     O     0.75230   0.04610   0.25470   0.01267  Uiso   1.00
O8     O     0.54990   0.56210   0.29960   0.01267  Uiso   1.00
O9     O     0.58910   0.86240   0.34880   0.01267  Uiso   1.00
O10    O     0.67510   0.40190   0.22210   0.01267  Uiso   1.00
O11    O     0.84920   0.65680   0.26560   0.01267  Uiso   1.00
O12    O     0.53920   0.21440   0.09050   0.01267  Uiso   1.00
O13    O     0.97020   0.32060   0.29440   0.01267  Uiso   1.00
O14    O     0.60580   0.55660   0.85640   0.01267  Uiso   1.00
O15    O     0.74910   0.37480   0.89040   0.01267  Uiso   1.00
O16    O     0.78040   0.33240   0.49150   0.01267  Uiso   1.00
O17    O     0.76570   0.05460   0.85890   0.01267  Uiso   1.00
O18    O     0.69130   0.32160   0.61970   0.01267  Uiso   1.00
O19    O     0.92410   0.54660   0.57770   0.01267  Uiso   1.00
O20    O     0.74770   0.45390   0.75470   0.01267  Uiso   1.00
O21    O     0.95010   0.93790   0.79960   0.01267  Uiso   1.00
O22    O     0.91090   0.63760   0.84880   0.01267  Uiso   1.00
O23    O     0.82490   0.09810   0.72210   0.01267  Uiso   1.00
O24    O     0.65080   0.84320   0.76560   0.01267  Uiso   1.00
O25    O     0.96080   0.28560   0.59050   0.01267  Uiso   1.00
O26    O     0.52980   0.17940   0.79440   0.01267  Uiso   1.00
O27    O     0.10580   0.05660   0.64360   0.01267  Uiso   1.00
O28    O     0.24910   0.87480   0.60960   0.01267  Uiso   1.00
O29    O     0.28040   0.83240   0.00850   0.01267  Uiso   1.00
O30    O     0.26570   0.55460   0.64110   0.01267  Uiso   1.00
O31    O     0.19130   0.82160   0.88030   0.01267  Uiso   1.00
O32    O     0.42410   0.04660   0.92230   0.01267  Uiso   1.00
O33    O     0.24770   0.95390   0.74530   0.01267  Uiso   1.00
O34    O     0.45010   0.43790   0.70040   0.01267  Uiso   1.00
O35    O     0.41090   0.13760   0.65120   0.01267  Uiso   1.00
O36    O     0.32490   0.59810   0.77790   0.01267  Uiso   1.00
O37    O     0.15080   0.34320   0.73440   0.01267  Uiso   1.00
O38    O     0.46080   0.78560   0.90950   0.01267  Uiso   1.00
O39    O     0.02980   0.67940   0.70560   0.01267  Uiso   1.00
O40    O     0.39420   0.44340   0.14360   0.01267  Uiso   1.00
O41    O     0.25090   0.62520   0.10960   0.01267  Uiso   1.00
O42    O     0.21960   0.66760   0.50850   0.01267  Uiso   1.00
O43    O     0.23430   0.94540   0.14110   0.01267  Uiso   1.00
O44    O     0.30870   0.67840   0.38030   0.01267  Uiso   1.00
O45    O     0.07590   0.45340   0.42230   0.01267  Uiso   1.00
O46    O     0.25230   0.54610   0.24530   0.01267  Uiso   1.00
O47    O     0.04990   0.06210   0.20040   0.01267  Uiso   1.00
O48    O     0.08910   0.36240   0.15120   0.01267  Uiso   1.00
O49    O     0.17510   0.90190   0.27790   0.01267  Uiso   1.00
O50    O     0.34920   0.15680   0.23440   0.01267  Uiso   1.00
O51    O     0.03920   0.71440   0.40950   0.01267  Uiso   1.00
O52    O     0.47020   0.82060   0.20560   0.01267  Uiso   1.00
