data_GOMREG_clean
_audit_creation_date              2014-07-02
_audit_creation_method            'Materials Studio'
_symmetry_space_group_name_H-M    'P1'
_symmetry_Int_Tables_number       1
_symmetry_cell_setting            triclinic
loop_
_symmetry_equiv_pos_as_xyz
  x,y,z
_cell_length_a                    9.8995
_cell_length_b                    9.8995
_cell_length_c                    15.4191
_cell_angle_alpha                 74.5636
_cell_angle_beta                  74.5636
_cell_angle_gamma                 82.5685
loop_
_atom_site_label
_atom_site_type_symbol
_atom_site_fract_x
_atom_site_fract_y
_atom_site_fract_z
_atom_site_U_iso_or_equiv
_atom_site_adp_type
_atom_site_occupancy
Al1    Al    0.93025   0.31515   0.12409   0.01267  Uiso   1.00
Al2    Al    0.63132   0.88302   0.07967   0.01267  Uiso   1.00
Al3    Al    0.02556   0.80676   0.16377   0.01267  Uiso   1.00
Al4    Al    0.68485   0.06975   0.37591   0.01267  Uiso   1.00
Al5    Al    0.11698   0.36868   0.42033   0.01267  Uiso   1.00
Al6    Al    0.19324   0.97444   0.33623   0.01267  Uiso   1.00
Al7    Al    0.06975   0.68485   0.87591   0.01267  Uiso   1.00
Al8    Al    0.36868   0.11698   0.92033   0.01267  Uiso   1.00
Al9    Al    0.97444   0.19324   0.83623   0.01267  Uiso   1.00
Al10   Al    0.31515   0.93025   0.62409   0.01267  Uiso   1.00
Al11   Al    0.88302   0.63132   0.57967   0.01267  Uiso   1.00
Al12   Al    0.80676   0.02556   0.66377   0.01267  Uiso   1.00
P1     P     0.86960   0.64102   0.07551   0.01267  Uiso   1.00
P2     P     0.31682   0.93492   0.12656   0.01267  Uiso   1.00
P3     P     0.77725   0.04521   0.17098   0.01267  Uiso   1.00
P4     P     0.35898   0.13040   0.42449   0.01267  Uiso   1.00
P5     P     0.06508   0.68318   0.37344   0.01267  Uiso   1.00
P6     P     0.95479   0.22275   0.32902   0.01267  Uiso   1.00
P7     P     0.13040   0.35898   0.92449   0.01267  Uiso   1.00
P8     P     0.68318   0.06508   0.87344   0.01267  Uiso   1.00
P9     P     0.22275   0.95479   0.82902   0.01267  Uiso   1.00
P10    P     0.64102   0.86960   0.57551   0.01267  Uiso   1.00
P11    P     0.93492   0.31682   0.62656   0.01267  Uiso   1.00
P12    P     0.04521   0.77725   0.67098   0.01267  Uiso   1.00
O1     O     0.21470   0.83910   0.12010   0.01267  Uiso   1.00
O2     O     0.84030   0.48610   0.10880   0.01267  Uiso   1.00
O3     O     0.67020   0.01400   0.12630   0.01267  Uiso   1.00
O4     O     0.26370   0.99930   0.20790   0.01267  Uiso   1.00
O5     O     0.79500   0.20260   0.13960   0.01267  Uiso   1.00
O6     O     0.98180   0.66900   0.11620   0.01267  Uiso   1.00
O7     O     0.72760   0.99840   0.27550   0.01267  Uiso   1.00
O8     O     0.45430   0.84650   0.13040   0.01267  Uiso   1.00
O9     O     0.34550   0.05830   0.04210   0.01267  Uiso   1.00
O10    O     0.91550   0.96730   0.14050   0.01267  Uiso   1.00
O11    O     0.73240   0.72380   0.10630   0.01267  Uiso   1.00
O12    O     0.91510   0.68170   0.97060   0.01267  Uiso   1.00
O13    O     0.16090   0.78530   0.37990   0.01267  Uiso   1.00
O14    O     0.51390   0.15970   0.39120   0.01267  Uiso   1.00
O15    O     0.98600   0.32980   0.37370   0.01267  Uiso   1.00
O16    O     0.00070   0.73630   0.29210   0.01267  Uiso   1.00
O17    O     0.79740   0.20500   0.36040   0.01267  Uiso   1.00
O18    O     0.33100   0.01820   0.38380   0.01267  Uiso   1.00
O19    O     0.00160   0.27240   0.22450   0.01267  Uiso   1.00
O20    O     0.15350   0.54570   0.36960   0.01267  Uiso   1.00
O21    O     0.94170   0.65450   0.45790   0.01267  Uiso   1.00
O22    O     0.03270   0.08450   0.35950   0.01267  Uiso   1.00
O23    O     0.27620   0.26760   0.39370   0.01267  Uiso   1.00
O24    O     0.31830   0.08490   0.52940   0.01267  Uiso   1.00
O25    O     0.78530   0.16090   0.87990   0.01267  Uiso   1.00
O26    O     0.15970   0.51390   0.89120   0.01267  Uiso   1.00
O27    O     0.32980   0.98600   0.87370   0.01267  Uiso   1.00
O28    O     0.73630   0.00070   0.79210   0.01267  Uiso   1.00
O29    O     0.20500   0.79740   0.86040   0.01267  Uiso   1.00
O30    O     0.01820   0.33100   0.88380   0.01267  Uiso   1.00
O31    O     0.27240   0.00160   0.72450   0.01267  Uiso   1.00
O32    O     0.54570   0.15350   0.86960   0.01267  Uiso   1.00
O33    O     0.65450   0.94170   0.95790   0.01267  Uiso   1.00
O34    O     0.08450   0.03270   0.85950   0.01267  Uiso   1.00
O35    O     0.26760   0.27620   0.89370   0.01267  Uiso   1.00
O36    O     0.08490   0.31830   0.02940   0.01267  Uiso   1.00
O37    O     0.83910   0.21470   0.62010   0.01267  Uiso   1.00
O38    O     0.48610   0.84030   0.60880   0.01267  Uiso   1.00
O39    O     0.01400   0.67020   0.62630   0.01267  Uiso   1.00
O40    O     0.99930   0.26370   0.70790   0.01267  Uiso   1.00
O41    O     0.20260   0.79500   0.63960   0.01267  Uiso   1.00
O42    O     0.66900   0.98180   0.61620   0.01267  Uiso   1.00
O43    O     0.99840   0.72760   0.77550   0.01267  Uiso   1.00
O44    O     0.84650   0.45430   0.63040   0.01267  Uiso   1.00
O45    O     0.05830   0.34550   0.54210   0.01267  Uiso   1.00
O46    O     0.96730   0.91550   0.64050   0.01267  Uiso   1.00
O47    O     0.72380   0.73240   0.60630   0.01267  Uiso   1.00
O48    O     0.68170   0.91510   0.47060   0.01267  Uiso   1.00
