data_GUKNIK_clean
_audit_creation_date              2014-07-02
_audit_creation_method            'Materials Studio'
_symmetry_space_group_name_H-M    'P1'
_symmetry_Int_Tables_number       1
_symmetry_cell_setting            triclinic
loop_
_symmetry_equiv_pos_as_xyz
  x,y,z
_cell_length_a                    6.8079
_cell_length_b                    7.3087
_cell_length_c                    14.5640
_cell_angle_alpha                 101.8460
_cell_angle_beta                  91.6010
_cell_angle_gamma                 86.2830
loop_
_atom_site_label
_atom_site_type_symbol
_atom_site_fract_x
_atom_site_fract_y
_atom_site_fract_z
_atom_site_U_iso_or_equiv
_atom_site_adp_type
_atom_site_occupancy
Ce1    Ce    0.82470   0.75780   0.50040   0.01267  Uiso   1.00
Ce2    Ce    0.17530   0.24220   0.49960   0.01267  Uiso   1.00
P1     P     0.29590   0.79360   0.57100   0.01267  Uiso   1.00
P2     P     0.70410   0.20640   0.42900   0.01267  Uiso   1.00
C1     C     0.33500   0.86900   0.69390   0.01267  Uiso   1.00
C2     C     0.34300   0.84600   0.85700   0.01267  Uiso   1.00
C3     C     0.27500   0.02000   0.92960   0.01267  Uiso   1.00
C4     C     0.07290   0.97800   0.95890   0.01267  Uiso   1.00
C5     C     0.94170   0.98300   0.87270   0.01267  Uiso   1.00
C6     C     0.07600   0.02100   0.79780   0.01267  Uiso   1.00
C7     C     0.66500   0.13100   0.30610   0.01267  Uiso   1.00
C8     C     0.65700   0.15400   0.14300   0.01267  Uiso   1.00
C9     C     0.72500   0.98000   0.07040   0.01267  Uiso   1.00
C10    C     0.92710   0.02200   0.04110   0.01267  Uiso   1.00
C11    C     0.05830   0.01700   0.12730   0.01267  Uiso   1.00
C12    C     0.92400   0.97900   0.20220   0.01267  Uiso   1.00
S1     S     0.14400   0.51700   0.29680   0.01267  Uiso   1.00
S2     S     0.85600   0.48300   0.70320   0.01267  Uiso   1.00
N1     N     0.21200   0.84900   0.77370   0.01267  Uiso   1.00
N2     N     0.78800   0.15100   0.22630   0.01267  Uiso   1.00
O1     O     0.14630   0.93530   0.53890   0.01267  Uiso   1.00
O2     O     0.21000   0.60280   0.55470   0.01267  Uiso   1.00
O3     O     0.49120   0.78600   0.52160   0.01267  Uiso   1.00
O4     O     0.03400   0.47600   0.21110   0.01267  Uiso   1.00
O5     O     0.33400   0.56500   0.27220   0.01267  Uiso   1.00
O6     O     0.01000   0.66100   0.35340   0.01267  Uiso   1.00
O7     O     0.16600   0.34500   0.33200   0.01267  Uiso   1.00
O8     O     0.85370   0.06470   0.46110   0.01267  Uiso   1.00
O9     O     0.79000   0.39720   0.44530   0.01267  Uiso   1.00
O10    O     0.50880   0.21400   0.47840   0.01267  Uiso   1.00
O11    O     0.96600   0.52400   0.78890   0.01267  Uiso   1.00
O12    O     0.66600   0.43500   0.72780   0.01267  Uiso   1.00
O13    O     0.99000   0.33900   0.64660   0.01267  Uiso   1.00
O14    O     0.83400   0.65500   0.66800   0.01267  Uiso   1.00
