data_GUSNEN01_clean
_audit_creation_date              2014-07-02
_audit_creation_method            'Materials Studio'
_symmetry_space_group_name_H-M    'P1'
_symmetry_Int_Tables_number       1
_symmetry_cell_setting            triclinic
loop_
_symmetry_equiv_pos_as_xyz
  x,y,z
_cell_length_a                    6.7780
_cell_length_b                    7.7005
_cell_length_c                    10.5670
_cell_angle_alpha                 111.3680
_cell_angle_beta                  103.4840
_cell_angle_gamma                 90.0000
loop_
_atom_site_label
_atom_site_type_symbol
_atom_site_fract_x
_atom_site_fract_y
_atom_site_fract_z
_atom_site_U_iso_or_equiv
_atom_site_adp_type
_atom_site_occupancy
Cr1    Cr    0.00000   0.00000   0.00000   0.01267  Uiso   1.00
Cr2    Cr    0.50000   0.00000   0.00000   0.01267  Uiso   1.00
H1     H     0.20060   0.89830   0.33740   0.01267  Uiso   1.00
H2     H     0.65740   0.04910   0.42500   0.01267  Uiso   1.00
H3     H     0.29940   0.56090   0.66260   0.01267  Uiso   1.00
H4     H     0.84260   0.62410   0.57500   0.01267  Uiso   1.00
H5     H     0.79940   0.10170   0.66260   0.01267  Uiso   1.00
H6     H     0.34260   0.95090   0.57500   0.01267  Uiso   1.00
H7     H     0.70060   0.43910   0.33740   0.01267  Uiso   1.00
H8     H     0.15740   0.37590   0.42500   0.01267  Uiso   1.00
C1     C     0.91730   0.96940   0.36160   0.01267  Uiso   1.00
C2     C     0.11690   0.94070   0.40520   0.01267  Uiso   1.00
C3     C     0.80040   0.02870   0.45640   0.01267  Uiso   1.00
C4     C     0.82860   0.93650   0.21320   0.01267  Uiso   1.00
C5     C     0.58270   0.60780   0.63840   0.01267  Uiso   1.00
C6     C     0.38310   0.53550   0.59480   0.01267  Uiso   1.00
C7     C     0.69960   0.57230   0.54360   0.01267  Uiso   1.00
C8     C     0.67140   0.72330   0.78680   0.01267  Uiso   1.00
C9     C     0.08270   0.03060   0.63840   0.01267  Uiso   1.00
C10    C     0.88310   0.05930   0.59480   0.01267  Uiso   1.00
C11    C     0.19960   0.97130   0.54360   0.01267  Uiso   1.00
C12    C     0.17140   0.06350   0.78680   0.01267  Uiso   1.00
C13    C     0.41730   0.39220   0.36160   0.01267  Uiso   1.00
C14    C     0.61690   0.46450   0.40520   0.01267  Uiso   1.00
C15    C     0.30040   0.42770   0.45640   0.01267  Uiso   1.00
C16    C     0.32860   0.27670   0.21320   0.01267  Uiso   1.00
O1     O     0.93760   0.88350   0.12560   0.01267  Uiso   1.00
O2     O     0.64290   0.96110   0.17240   0.01267  Uiso   1.00
O3     O     0.56240   0.75790   0.87440   0.01267  Uiso   1.00
O4     O     0.85710   0.78870   0.82760   0.01267  Uiso   1.00
O5     O     0.06240   0.11650   0.87440   0.01267  Uiso   1.00
O6     O     0.35710   0.03890   0.82760   0.01267  Uiso   1.00
O7     O     0.43760   0.24210   0.12560   0.01267  Uiso   1.00
O8     O     0.14290   0.21130   0.17240   0.01267  Uiso   1.00
O9     O     0.25000   0.88080   0.00000   0.01267  Uiso   1.00
O10    O     0.75000   0.11920   0.00000   0.01267  Uiso   1.00
