data_GUSNEN_clean_h
_audit_creation_date              2014-07-02
_audit_creation_method            'Materials Studio'
_symmetry_space_group_name_H-M    'P1'
_symmetry_Int_Tables_number       1
_symmetry_cell_setting            triclinic
loop_
_symmetry_equiv_pos_as_xyz
  x,y,z
_cell_length_a                    6.7820
_cell_length_b                    7.8490
_cell_length_c                    10.5961
_cell_angle_alpha                 111.7390
_cell_angle_beta                  103.8190
_cell_angle_gamma                 90.0000
loop_
_atom_site_label
_atom_site_type_symbol
_atom_site_fract_x
_atom_site_fract_y
_atom_site_fract_z
_atom_site_U_iso_or_equiv
_atom_site_adp_type
_atom_site_occupancy
Cr1    Cr    0.00000   0.00000   0.00000   0.01267  Uiso   1.00
Cr2    Cr    0.50000  -0.00000   0.00000   0.01267  Uiso   1.00
C1     C     0.33000   0.30100   0.22200   0.01267  Uiso   1.00
C2     C     0.61800   0.49400   0.39600   0.01267  Uiso   1.00
C3     C     0.29600   0.40900   0.45800   0.01267  Uiso   1.00
C4     C     0.42100   0.39400   0.36800   0.01267  Uiso   1.00
C5     C     0.17000   0.07900   0.77800   0.01267  Uiso   1.00
C6     C     0.88200   0.09800   0.60400   0.01267  Uiso   1.00
C7     C     0.20400   0.95100   0.54200   0.01267  Uiso   1.00
C8     C     0.07900   0.02600   0.63200   0.01267  Uiso   1.00
C9     C     0.67000   0.69900   0.77800   0.01267  Uiso   1.00
C10    C     0.38200   0.50600   0.60400   0.01267  Uiso   1.00
C11    C     0.70400   0.59100   0.54200   0.01267  Uiso   1.00
C12    C     0.57900   0.60600   0.63200   0.01267  Uiso   1.00
C13    C     0.83000   0.92100   0.22200   0.01267  Uiso   1.00
C14    C     0.11800   0.90200   0.39600   0.01267  Uiso   1.00
C15    C     0.79600   0.04900   0.45800   0.01267  Uiso   1.00
C16    C     0.92100   0.97400   0.36800   0.01267  Uiso   1.00
O1     O     0.44500   0.23400   0.13600   0.01267  Uiso   1.00
O2     O     0.15200   0.22800   0.17400   0.01267  Uiso   1.00
O3     O     0.05500   0.09800   0.86400   0.01267  Uiso   1.00
O4     O     0.34800   0.05400   0.82600   0.01267  Uiso   1.00
O5     O     0.55500   0.76600   0.86400   0.01267  Uiso   1.00
O6     O     0.84800   0.77200   0.82600   0.01267  Uiso   1.00
O7     O     0.94500   0.90200   0.13600   0.01267  Uiso   1.00
O8     O     0.65200   0.94600   0.17400   0.01267  Uiso   1.00
O9     O     0.25000   0.88700  -0.00000   0.01267  Uiso   1.00
O10    O     0.75000   0.11300  -0.00000   0.01267  Uiso   1.00
H1     H     0.68379   0.48739   0.30502   0.01267  Uiso   1.00
H2     H     0.13119   0.34447   0.41334   0.01267  Uiso   1.00
H3     H     0.81621   0.18237   0.69498   0.01267  Uiso   1.00
H4     H     0.36881   0.93114   0.58666   0.01267  Uiso   1.00
H5     H     0.29691   0.49911   0.68294   0.01267  Uiso   1.00
H6     H     0.86964   0.65327   0.58189   0.01267  Uiso   1.00
H7     H     0.20309   0.81617   0.31706   0.01267  Uiso   1.00
H8     H     0.63036   0.07138   0.41811   0.01267  Uiso   1.00
