data_GUYLOC_clean
_audit_creation_date              2014-07-02
_audit_creation_method            'Materials Studio'
_symmetry_space_group_name_H-M    'P1'
_symmetry_Int_Tables_number       1
_symmetry_cell_setting            triclinic
loop_
_symmetry_equiv_pos_as_xyz
  x,y,z
_cell_length_a                    13.9440
_cell_length_b                    14.1020
_cell_length_c                    14.1020
_cell_angle_alpha                 93.0802
_cell_angle_beta                  109.3670
_cell_angle_gamma                 70.6330
loop_
_atom_site_label
_atom_site_type_symbol
_atom_site_fract_x
_atom_site_fract_y
_atom_site_fract_z
_atom_site_U_iso_or_equiv
_atom_site_adp_type
_atom_site_occupancy
Zn1    Zn    0.86750   0.13349   0.17585   0.01267  Uiso   1.00
Zn2    Zn    0.63250   0.17585   0.13349   0.01267  Uiso   1.00
H1     H     0.55870   0.69340   0.10000   0.01267  Uiso   1.00
H2     H     0.52550   0.52980   0.09840   0.01267  Uiso   1.00
H3     H     0.97030   0.77660   0.18880   0.01267  Uiso   1.00
H4     H     0.93210   0.61420   0.17540   0.01267  Uiso   1.00
H5     H     0.20840   0.21690   0.28770   0.01267  Uiso   1.00
H6     H     0.05020   0.20440   0.30100   0.01267  Uiso   1.00
H7     H     0.00040   0.06430   0.03950   0.01267  Uiso   1.00
H8     H     0.15860   0.07680   0.02600   0.01267  Uiso   1.00
H9     H     0.94130   0.10000   0.69340   0.01267  Uiso   1.00
H10    H     0.97450   0.09840   0.52980   0.01267  Uiso   1.00
H11    H     0.52970   0.18880   0.77660   0.01267  Uiso   1.00
H12    H     0.56790   0.17540   0.61420   0.01267  Uiso   1.00
H13    H     0.29160   0.28770   0.21690   0.01267  Uiso   1.00
H14    H     0.44980   0.30100   0.20440   0.01267  Uiso   1.00
H15    H     0.49960   0.03950   0.06430   0.01267  Uiso   1.00
H16    H     0.34140   0.02600   0.07680   0.01267  Uiso   1.00
C1     C     0.79850   0.96240   0.16000   0.01267  Uiso   1.00
C2     C     0.70190   0.34550   0.14950   0.01267  Uiso   1.00
C3     C     0.68690   0.45620   0.14420   0.01267  Uiso   1.00
C4     C     0.72210   0.61630   0.14850   0.01267  Uiso   1.00
C5     C     0.81100   0.85220   0.16380   0.01267  Uiso   1.00
C6     C     0.61410   0.62960   0.11800   0.01267  Uiso   1.00
C7     C     0.59530   0.53550   0.11670   0.01267  Uiso   1.00
C8     C     0.77320   0.69340   0.15920   0.01267  Uiso   1.00
C9     C     0.90090   0.77200   0.17700   0.01267  Uiso   1.00
C10    C     0.87940   0.67850   0.17130   0.01267  Uiso   1.00
C11    C     0.16620   0.18590   0.23730   0.01267  Uiso   1.00
C12    C     0.07220   0.17847   0.24527   0.01267  Uiso   1.00
C13    C     0.04260   0.09525   0.08985   0.01267  Uiso   1.00
C14    C     0.13660   0.10270   0.08190   0.01267  Uiso   1.00
C15    C     0.19840   0.14800   0.15560   0.01267  Uiso   1.00
C16    C     0.70150   0.16000   0.96240   0.01267  Uiso   1.00
C17    C     0.79810   0.14950   0.34550   0.01267  Uiso   1.00
C18    C     0.81310   0.14420   0.45620   0.01267  Uiso   1.00
C19    C     0.77790   0.14850   0.61630   0.01267  Uiso   1.00
C20    C     0.68900   0.16380   0.85220   0.01267  Uiso   1.00
C21    C     0.88590   0.11800   0.62960   0.01267  Uiso   1.00
C22    C     0.90470   0.11670   0.53550   0.01267  Uiso   1.00
C23    C     0.72680   0.15920   0.69340   0.01267  Uiso   1.00
C24    C     0.59910   0.17700   0.77200   0.01267  Uiso   1.00
C25    C     0.62060   0.17130   0.67850   0.01267  Uiso   1.00
C26    C     0.33380   0.23730   0.18590   0.01267  Uiso   1.00
C27    C     0.42780   0.24527   0.17847   0.01267  Uiso   1.00
C28    C     0.45740   0.08985   0.09525   0.01267  Uiso   1.00
C29    C     0.36340   0.08190   0.10270   0.01267  Uiso   1.00
C30    C     0.30160   0.15560   0.14800   0.01267  Uiso   1.00
S1     S     0.69998   0.81865   0.14925   0.01267  Uiso   1.00
S2     S     0.80043   0.49133   0.17511   0.01267  Uiso   1.00
S3     S     0.80002   0.14925   0.81865   0.01267  Uiso   1.00
S4     S     0.69957   0.17511   0.49133   0.01267  Uiso   1.00
N1     N     0.01040   0.13314   0.17154   0.01267  Uiso   1.00
N2     N     0.48960   0.17154   0.13314   0.01267  Uiso   1.00
O1     O     0.88040   0.98547   0.17071   0.01267  Uiso   1.00
O2     O     0.61810   0.32352   0.12532   0.01267  Uiso   1.00
O3     O     0.70620   0.02268   0.14768   0.01267  Uiso   1.00
O4     O     0.79610   0.28730   0.17470   0.01267  Uiso   1.00
O5     O     0.61960   0.17071   0.98547   0.01267  Uiso   1.00
O6     O     0.88190   0.12532   0.32352   0.01267  Uiso   1.00
O7     O     0.79380   0.14768   0.02268   0.01267  Uiso   1.00
O8     O     0.70390   0.17470   0.28730   0.01267  Uiso   1.00
Zn3    Zn    0.13250   0.86651   0.82415   0.01267  Uiso   1.00
Zn4    Zn    0.36750   0.82415   0.86651   0.01267  Uiso   1.00
H17    H     0.44130   0.30660   0.90000   0.01267  Uiso   1.00
H18    H     0.47450   0.47020   0.90160   0.01267  Uiso   1.00
H19    H     0.02970   0.22340   0.81120   0.01267  Uiso   1.00
H20    H     0.06790   0.38580   0.82460   0.01267  Uiso   1.00
H21    H     0.79160   0.78310   0.71230   0.01267  Uiso   1.00
H22    H     0.94980   0.79560   0.69900   0.01267  Uiso   1.00
H23    H     0.99960   0.93570   0.96050   0.01267  Uiso   1.00
H24    H     0.84140   0.92320   0.97400   0.01267  Uiso   1.00
H25    H     0.05870   0.90000   0.30660   0.01267  Uiso   1.00
H26    H     0.02550   0.90160   0.47020   0.01267  Uiso   1.00
H27    H     0.47030   0.81120   0.22340   0.01267  Uiso   1.00
H28    H     0.43210   0.82460   0.38580   0.01267  Uiso   1.00
H29    H     0.70840   0.71230   0.78310   0.01267  Uiso   1.00
H30    H     0.55020   0.69900   0.79560   0.01267  Uiso   1.00
H31    H     0.50040   0.96050   0.93570   0.01267  Uiso   1.00
H32    H     0.65860   0.97400   0.92320   0.01267  Uiso   1.00
C31    C     0.20150   0.03760   0.84000   0.01267  Uiso   1.00
C32    C     0.29810   0.65450   0.85050   0.01267  Uiso   1.00
C33    C     0.31310   0.54380   0.85580   0.01267  Uiso   1.00
C34    C     0.27790   0.38370   0.85150   0.01267  Uiso   1.00
C35    C     0.18900   0.14780   0.83620   0.01267  Uiso   1.00
C36    C     0.38590   0.37040   0.88200   0.01267  Uiso   1.00
C37    C     0.40470   0.46450   0.88330   0.01267  Uiso   1.00
C38    C     0.22680   0.30660   0.84080   0.01267  Uiso   1.00
C39    C     0.09910   0.22800   0.82300   0.01267  Uiso   1.00
C40    C     0.12060   0.32150   0.82870   0.01267  Uiso   1.00
C41    C     0.83380   0.81410   0.76270   0.01267  Uiso   1.00
C42    C     0.92780   0.82153   0.75473   0.01267  Uiso   1.00
C43    C     0.95740   0.90475   0.91015   0.01267  Uiso   1.00
C44    C     0.86340   0.89730   0.91810   0.01267  Uiso   1.00
C45    C     0.80160   0.85200   0.84440   0.01267  Uiso   1.00
C46    C     0.29850   0.84000   0.03760   0.01267  Uiso   1.00
C47    C     0.20190   0.85050   0.65450   0.01267  Uiso   1.00
C48    C     0.18690   0.85580   0.54380   0.01267  Uiso   1.00
C49    C     0.22210   0.85150   0.38370   0.01267  Uiso   1.00
C50    C     0.31100   0.83620   0.14780   0.01267  Uiso   1.00
C51    C     0.11410   0.88200   0.37040   0.01267  Uiso   1.00
C52    C     0.09530   0.88330   0.46450   0.01267  Uiso   1.00
C53    C     0.27320   0.84080   0.30660   0.01267  Uiso   1.00
C54    C     0.40090   0.82300   0.22800   0.01267  Uiso   1.00
C55    C     0.37940   0.82870   0.32150   0.01267  Uiso   1.00
C56    C     0.66620   0.76270   0.81410   0.01267  Uiso   1.00
C57    C     0.57220   0.75473   0.82153   0.01267  Uiso   1.00
C58    C     0.54260   0.91015   0.90475   0.01267  Uiso   1.00
C59    C     0.63660   0.91810   0.89730   0.01267  Uiso   1.00
C60    C     0.69840   0.84440   0.85200   0.01267  Uiso   1.00
S5     S     0.30002   0.18135   0.85075   0.01267  Uiso   1.00
S6     S     0.19957   0.50867   0.82489   0.01267  Uiso   1.00
S7     S     0.19998   0.85075   0.18135   0.01267  Uiso   1.00
S8     S     0.30043   0.82489   0.50867   0.01267  Uiso   1.00
N3     N     0.98960   0.86686   0.82846   0.01267  Uiso   1.00
N4     N     0.51040   0.82846   0.86686   0.01267  Uiso   1.00
O9     O     0.11960   0.01453   0.82929   0.01267  Uiso   1.00
O10    O     0.38190   0.67648   0.87468   0.01267  Uiso   1.00
O11    O     0.29380   0.97732   0.85232   0.01267  Uiso   1.00
O12    O     0.20390   0.71270   0.82530   0.01267  Uiso   1.00
O13    O     0.38040   0.82929   0.01453   0.01267  Uiso   1.00
O14    O     0.11810   0.87468   0.67648   0.01267  Uiso   1.00
O15    O     0.20620   0.85232   0.97732   0.01267  Uiso   1.00
O16    O     0.29610   0.82530   0.71270   0.01267  Uiso   1.00
