data_GUYLUI01_clean
_audit_creation_date              2014-07-02
_audit_creation_method            'Materials Studio'
_symmetry_space_group_name_H-M    'P1'
_symmetry_Int_Tables_number       1
_symmetry_cell_setting            triclinic
loop_
_symmetry_equiv_pos_as_xyz
  x,y,z
_cell_length_a                    9.4874
_cell_length_b                    14.0490
_cell_length_c                    14.0490
_cell_angle_alpha                 101.5900
_cell_angle_beta                  101.9910
_cell_angle_gamma                 101.9910
loop_
_atom_site_label
_atom_site_type_symbol
_atom_site_fract_x
_atom_site_fract_y
_atom_site_fract_z
_atom_site_U_iso_or_equiv
_atom_site_adp_type
_atom_site_occupancy
Zn1    Zn    0.91120   0.27717   0.82421   0.01267  Uiso   1.00
Zn2    Zn    0.58880   0.17579   0.72283   0.01267  Uiso   1.00
Zn3    Zn    0.08880   0.72283   0.17579   0.01267  Uiso   1.00
Zn4    Zn    0.41120   0.82421   0.27717   0.01267  Uiso   1.00
H1     H     0.48720   0.66080   0.74940   0.01267  Uiso   1.00
H2     H     0.96880   0.82180   0.92660   0.01267  Uiso   1.00
H3     H     0.44380   0.48040   0.73440   0.01267  Uiso   1.00
H4     H     0.02620   0.99510   0.91350   0.01267  Uiso   1.00
H5     H     0.32810   0.58450   0.97590   0.01267  Uiso   1.00
H6     H     0.45240   0.33260   0.97280   0.01267  Uiso   1.00
H7     H     0.08780   0.49060   0.90540   0.01267  Uiso   1.00
H8     H     0.20840   0.24530   0.90630   0.01267  Uiso   1.00
H9     H     0.01280   0.25060   0.33920   0.01267  Uiso   1.00
H10    H     0.53120   0.07340   0.17820   0.01267  Uiso   1.00
H11    H     0.05620   0.26560   0.51960   0.01267  Uiso   1.00
H12    H     0.47380   0.08650   0.00490   0.01267  Uiso   1.00
H13    H     0.17190   0.02410   0.41550   0.01267  Uiso   1.00
H14    H     0.04760   0.02720   0.66740   0.01267  Uiso   1.00
H15    H     0.41220   0.09460   0.50940   0.01267  Uiso   1.00
H16    H     0.29160   0.09370   0.75470   0.01267  Uiso   1.00
H17    H     0.51280   0.33920   0.25060   0.01267  Uiso   1.00
H18    H     0.03120   0.17820   0.07340   0.01267  Uiso   1.00
H19    H     0.55620   0.51960   0.26560   0.01267  Uiso   1.00
H20    H     0.97380   0.00490   0.08650   0.01267  Uiso   1.00
H21    H     0.67190   0.41550   0.02410   0.01267  Uiso   1.00
H22    H     0.54760   0.66740   0.02720   0.01267  Uiso   1.00
H23    H     0.91220   0.50940   0.09460   0.01267  Uiso   1.00
H24    H     0.79160   0.75470   0.09370   0.01267  Uiso   1.00
H25    H     0.98720   0.74940   0.66080   0.01267  Uiso   1.00
H26    H     0.46880   0.92660   0.82180   0.01267  Uiso   1.00
H27    H     0.94380   0.73440   0.48040   0.01267  Uiso   1.00
H28    H     0.52620   0.91350   0.99510   0.01267  Uiso   1.00
H29    H     0.82810   0.97590   0.58450   0.01267  Uiso   1.00
H30    H     0.95240   0.97280   0.33260   0.01267  Uiso   1.00
H31    H     0.58780   0.90540   0.49060   0.01267  Uiso   1.00
H32    H     0.70840   0.90630   0.24530   0.01267  Uiso   1.00
C1     C     0.77990   0.78647   0.81313   0.01267  Uiso   1.00
C2     C     0.66690   0.49722   0.78062   0.01267  Uiso   1.00
C3     C     0.69140   0.39635   0.77893   0.01267  Uiso   1.00
C4     C     0.56340   0.62955   0.76425   0.01267  Uiso   1.00
C5     C     0.81890   0.06111   0.78533   0.01267  Uiso   1.00
C6     C     0.90860   0.84548   0.88072   0.01267  Uiso   1.00
C7     C     0.53820   0.52511   0.75529   0.01267  Uiso   1.00
C8     C     0.42150   0.46999   0.97729   0.01267  Uiso   1.00
C9     C     0.83480   0.96347   0.80289   0.01267  Uiso   1.00
C10    C     0.71070   0.67993   0.79687   0.01267  Uiso   1.00
C11    C     0.94120   0.94598   0.87382   0.01267  Uiso   1.00
C12    C     0.30770   0.51460   0.95940   0.01267  Uiso   1.00
C13    C     0.38050   0.36720   0.95820   0.01267  Uiso   1.00
C14    C     0.16270   0.45760   0.91740   0.01267  Uiso   1.00
C15    C     0.23320   0.31500   0.91740   0.01267  Uiso   1.00
C16    C     0.72010   0.18687   0.21353   0.01267  Uiso   1.00
C17    C     0.83310   0.21938   0.50278   0.01267  Uiso   1.00
C18    C     0.80860   0.22107   0.60365   0.01267  Uiso   1.00
C19    C     0.93660   0.23575   0.37045   0.01267  Uiso   1.00
C20    C     0.68110   0.21467   0.93889   0.01267  Uiso   1.00
C21    C     0.59140   0.11928   0.15452   0.01267  Uiso   1.00
C22    C     0.96180   0.24471   0.47489   0.01267  Uiso   1.00
C23    C     0.07850   0.02271   0.53001   0.01267  Uiso   1.00
C24    C     0.66520   0.19711   0.03653   0.01267  Uiso   1.00
C25    C     0.78930   0.20313   0.32007   0.01267  Uiso   1.00
C26    C     0.55880   0.12618   0.05402   0.01267  Uiso   1.00
C27    C     0.19230   0.04060   0.48540   0.01267  Uiso   1.00
C28    C     0.11950   0.04180   0.63280   0.01267  Uiso   1.00
C29    C     0.33730   0.08260   0.54240   0.01267  Uiso   1.00
C30    C     0.26680   0.08260   0.68500   0.01267  Uiso   1.00
C31    C     0.22010   0.21353   0.18687   0.01267  Uiso   1.00
C32    C     0.33310   0.50278   0.21938   0.01267  Uiso   1.00
C33    C     0.30860   0.60365   0.22107   0.01267  Uiso   1.00
C34    C     0.43660   0.37045   0.23575   0.01267  Uiso   1.00
C35    C     0.18110   0.93889   0.21467   0.01267  Uiso   1.00
C36    C     0.09140   0.15452   0.11928   0.01267  Uiso   1.00
C37    C     0.46180   0.47489   0.24471   0.01267  Uiso   1.00
C38    C     0.57850   0.53001   0.02271   0.01267  Uiso   1.00
C39    C     0.16520   0.03653   0.19711   0.01267  Uiso   1.00
C40    C     0.28930   0.32007   0.20313   0.01267  Uiso   1.00
C41    C     0.05880   0.05402   0.12618   0.01267  Uiso   1.00
C42    C     0.69230   0.48540   0.04060   0.01267  Uiso   1.00
C43    C     0.61950   0.63280   0.04180   0.01267  Uiso   1.00
C44    C     0.83730   0.54240   0.08260   0.01267  Uiso   1.00
C45    C     0.76680   0.68500   0.08260   0.01267  Uiso   1.00
C46    C     0.27990   0.81313   0.78647   0.01267  Uiso   1.00
C47    C     0.16690   0.78062   0.49722   0.01267  Uiso   1.00
C48    C     0.19140   0.77893   0.39635   0.01267  Uiso   1.00
C49    C     0.06340   0.76425   0.62955   0.01267  Uiso   1.00
C50    C     0.31890   0.78533   0.06111   0.01267  Uiso   1.00
C51    C     0.40860   0.88072   0.84548   0.01267  Uiso   1.00
C52    C     0.03820   0.75529   0.52511   0.01267  Uiso   1.00
C53    C     0.92150   0.97729   0.46999   0.01267  Uiso   1.00
C54    C     0.33480   0.80289   0.96347   0.01267  Uiso   1.00
C55    C     0.21070   0.79687   0.67993   0.01267  Uiso   1.00
C56    C     0.44120   0.87382   0.94598   0.01267  Uiso   1.00
C57    C     0.80770   0.95940   0.51460   0.01267  Uiso   1.00
C58    C     0.88050   0.95820   0.36720   0.01267  Uiso   1.00
C59    C     0.66270   0.91740   0.45760   0.01267  Uiso   1.00
C60    C     0.73320   0.91740   0.31500   0.01267  Uiso   1.00
S1     S     0.69826   0.85498   0.74022   0.01267  Uiso   1.00
S2     S     0.82003   0.59885   0.81699   0.01267  Uiso   1.00
S3     S     0.80174   0.25978   0.14502   0.01267  Uiso   1.00
S4     S     0.67997   0.18301   0.40115   0.01267  Uiso   1.00
S5     S     0.30174   0.14502   0.25978   0.01267  Uiso   1.00
S6     S     0.17997   0.40115   0.18301   0.01267  Uiso   1.00
S7     S     0.19826   0.74022   0.85498   0.01267  Uiso   1.00
S8     S     0.32003   0.81699   0.59885   0.01267  Uiso   1.00
N1     N     0.12540   0.35838   0.89316   0.01267  Uiso   1.00
N2     N     0.37460   0.10684   0.64162   0.01267  Uiso   1.00
N3     N     0.87460   0.64162   0.10684   0.01267  Uiso   1.00
N4     N     0.62540   0.89316   0.35838   0.01267  Uiso   1.00
O1     O     0.92800   0.13647   0.82911   0.01267  Uiso   1.00
O2     O     0.82490   0.39335   0.80271   0.01267  Uiso   1.00
O3     O     0.57810   0.32266   0.75372   0.01267  Uiso   1.00
O4     O     0.69730   0.06179   0.73033   0.01267  Uiso   1.00
O5     O     0.57200   0.17089   0.86353   0.01267  Uiso   1.00
O6     O     0.67510   0.19729   0.60665   0.01267  Uiso   1.00
O7     O     0.92190   0.24628   0.67734   0.01267  Uiso   1.00
O8     O     0.80270   0.26967   0.93821   0.01267  Uiso   1.00
O9     O     0.07200   0.86353   0.17089   0.01267  Uiso   1.00
O10    O     0.17510   0.60665   0.19729   0.01267  Uiso   1.00
O11    O     0.42190   0.67734   0.24628   0.01267  Uiso   1.00
O12    O     0.30270   0.93821   0.26967   0.01267  Uiso   1.00
O13    O     0.42800   0.82911   0.13647   0.01267  Uiso   1.00
O14    O     0.32490   0.80271   0.39335   0.01267  Uiso   1.00
O15    O     0.07810   0.75372   0.32266   0.01267  Uiso   1.00
O16    O     0.19730   0.73033   0.06179   0.01267  Uiso   1.00
