data_GUYLUI_clean
_audit_creation_date              2014-07-02
_audit_creation_method            'Materials Studio'
_symmetry_space_group_name_H-M    'P1'
_symmetry_Int_Tables_number       1
_symmetry_cell_setting            triclinic
loop_
_symmetry_equiv_pos_as_xyz
  x,y,z
_cell_length_a                    9.3760
_cell_length_b                    14.0157
_cell_length_c                    14.0157
_cell_angle_alpha                 101.7300
_cell_angle_beta                  101.4510
_cell_angle_gamma                 101.4510
loop_
_atom_site_label
_atom_site_type_symbol
_atom_site_fract_x
_atom_site_fract_y
_atom_site_fract_z
_atom_site_U_iso_or_equiv
_atom_site_adp_type
_atom_site_occupancy
Zn1    Zn    0.91154   0.82458   0.27566   0.01267  Uiso   1.00
Zn2    Zn    0.58846   0.72434   0.17542   0.01267  Uiso   1.00
Zn3    Zn    0.08846   0.17542   0.72434   0.01267  Uiso   1.00
Zn4    Zn    0.41154   0.27566   0.82458   0.01267  Uiso   1.00
H1     H     0.08400   0.90290   0.48890   0.01267  Uiso   1.00
H2     H     0.32620   0.97190   0.58410   0.01267  Uiso   1.00
H3     H     0.45740   0.97610   0.33270   0.01267  Uiso   1.00
H4     H     0.21120   0.90930   0.24370   0.01267  Uiso   1.00
H5     H     0.06230   0.51900   0.26720   0.01267  Uiso   1.00
H6     H     0.01690   0.33750   0.25150   0.01267  Uiso   1.00
H7     H     0.47340   0.00760   0.08400   0.01267  Uiso   1.00
H8     H     0.53490   0.18240   0.07140   0.01267  Uiso   1.00
H9     H     0.41600   0.51110   0.09710   0.01267  Uiso   1.00
H10    H     0.17380   0.41590   0.02810   0.01267  Uiso   1.00
H11    H     0.04260   0.66730   0.02390   0.01267  Uiso   1.00
H12    H     0.28880   0.75630   0.09070   0.01267  Uiso   1.00
H13    H     0.43770   0.73280   0.48100   0.01267  Uiso   1.00
H14    H     0.48310   0.74850   0.66250   0.01267  Uiso   1.00
H15    H     0.02660   0.91600   0.99240   0.01267  Uiso   1.00
H16    H     0.96510   0.92860   0.81760   0.01267  Uiso   1.00
H17    H     0.91600   0.09710   0.51110   0.01267  Uiso   1.00
H18    H     0.67380   0.02810   0.41590   0.01267  Uiso   1.00
H19    H     0.54260   0.02390   0.66730   0.01267  Uiso   1.00
H20    H     0.78880   0.09070   0.75630   0.01267  Uiso   1.00
H21    H     0.93770   0.48100   0.73280   0.01267  Uiso   1.00
H22    H     0.98310   0.66250   0.74850   0.01267  Uiso   1.00
H23    H     0.52660   0.99240   0.91600   0.01267  Uiso   1.00
H24    H     0.46510   0.81760   0.92860   0.01267  Uiso   1.00
H25    H     0.58400   0.48890   0.90290   0.01267  Uiso   1.00
H26    H     0.82620   0.58410   0.97190   0.01267  Uiso   1.00
H27    H     0.95740   0.33270   0.97610   0.01267  Uiso   1.00
H28    H     0.71120   0.24370   0.90930   0.01267  Uiso   1.00
H29    H     0.56230   0.26720   0.51900   0.01267  Uiso   1.00
H30    H     0.51690   0.25150   0.33750   0.01267  Uiso   1.00
H31    H     0.97340   0.08400   0.00760   0.01267  Uiso   1.00
H32    H     0.03490   0.07140   0.18240   0.01267  Uiso   1.00
C1     C     0.16100   0.91590   0.45590   0.01267  Uiso   1.00
C2     C     0.30700   0.95758   0.51362   0.01267  Uiso   1.00
C3     C     0.42200   0.97784   0.47056   0.01267  Uiso   1.00
C4     C     0.38300   0.96030   0.36710   0.01267  Uiso   1.00
C5     C     0.23490   0.91940   0.31400   0.01267  Uiso   1.00
C6     C     0.81240   0.60453   0.22069   0.01267  Uiso   1.00
C7     C     0.83630   0.50373   0.22011   0.01267  Uiso   1.00
C8     C     0.96620   0.47447   0.24573   0.01267  Uiso   1.00
C9     C     0.93970   0.37002   0.23658   0.01267  Uiso   1.00
C10    C     0.79160   0.32071   0.20401   0.01267  Uiso   1.00
C11    C     0.72070   0.21437   0.18649   0.01267  Uiso   1.00
C12    C     0.66320   0.03731   0.19619   0.01267  Uiso   1.00
C13    C     0.55930   0.05647   0.12483   0.01267  Uiso   1.00
C14    C     0.59380   0.15751   0.11829   0.01267  Uiso   1.00
C15    C     0.67890   0.93958   0.21336   0.01267  Uiso   1.00
C16    C     0.33900   0.54410   0.08410   0.01267  Uiso   1.00
C17    C     0.19300   0.48638   0.04242   0.01267  Uiso   1.00
C18    C     0.07800   0.52944   0.02216   0.01267  Uiso   1.00
C19    C     0.11700   0.63290   0.03970   0.01267  Uiso   1.00
C20    C     0.26510   0.68600   0.08060   0.01267  Uiso   1.00
C21    C     0.68760   0.77931   0.39547   0.01267  Uiso   1.00
C22    C     0.66370   0.77989   0.49627   0.01267  Uiso   1.00
C23    C     0.53380   0.75427   0.52553   0.01267  Uiso   1.00
C24    C     0.56030   0.76342   0.62998   0.01267  Uiso   1.00
C25    C     0.70840   0.79599   0.67929   0.01267  Uiso   1.00
C26    C     0.77930   0.81351   0.78563   0.01267  Uiso   1.00
C27    C     0.83680   0.80381   0.96269   0.01267  Uiso   1.00
C28    C     0.94070   0.87517   0.94353   0.01267  Uiso   1.00
C29    C     0.90620   0.88171   0.84249   0.01267  Uiso   1.00
C30    C     0.82110   0.78664   0.06042   0.01267  Uiso   1.00
C31    C     0.83900   0.08410   0.54410   0.01267  Uiso   1.00
C32    C     0.69300   0.04242   0.48638   0.01267  Uiso   1.00
C33    C     0.57800   0.02216   0.52944   0.01267  Uiso   1.00
C34    C     0.61700   0.03970   0.63290   0.01267  Uiso   1.00
C35    C     0.76510   0.08060   0.68600   0.01267  Uiso   1.00
C36    C     0.18760   0.39547   0.77931   0.01267  Uiso   1.00
C37    C     0.16370   0.49627   0.77989   0.01267  Uiso   1.00
C38    C     0.03380   0.52553   0.75427   0.01267  Uiso   1.00
C39    C     0.06030   0.62998   0.76342   0.01267  Uiso   1.00
C40    C     0.20840   0.67929   0.79599   0.01267  Uiso   1.00
C41    C     0.27930   0.78563   0.81351   0.01267  Uiso   1.00
C42    C     0.33680   0.96269   0.80381   0.01267  Uiso   1.00
C43    C     0.44070   0.94353   0.87517   0.01267  Uiso   1.00
C44    C     0.40620   0.84249   0.88171   0.01267  Uiso   1.00
C45    C     0.32110   0.06042   0.78664   0.01267  Uiso   1.00
C46    C     0.66100   0.45590   0.91590   0.01267  Uiso   1.00
C47    C     0.80700   0.51362   0.95758   0.01267  Uiso   1.00
C48    C     0.92200   0.47056   0.97784   0.01267  Uiso   1.00
C49    C     0.88300   0.36710   0.96030   0.01267  Uiso   1.00
C50    C     0.73490   0.31400   0.91940   0.01267  Uiso   1.00
C51    C     0.31240   0.22069   0.60453   0.01267  Uiso   1.00
C52    C     0.33630   0.22011   0.50373   0.01267  Uiso   1.00
C53    C     0.46620   0.24573   0.47447   0.01267  Uiso   1.00
C54    C     0.43970   0.23658   0.37002   0.01267  Uiso   1.00
C55    C     0.29160   0.20401   0.32071   0.01267  Uiso   1.00
C56    C     0.22070   0.18649   0.21437   0.01267  Uiso   1.00
C57    C     0.16320   0.19619   0.03731   0.01267  Uiso   1.00
C58    C     0.05930   0.12483   0.05647   0.01267  Uiso   1.00
C59    C     0.09380   0.11829   0.15751   0.01267  Uiso   1.00
C60    C     0.17890   0.21336   0.93958   0.01267  Uiso   1.00
S1     S     0.68155   0.40324   0.18344   0.01267  Uiso   1.00
S2     S     0.80099   0.14475   0.25913   0.01267  Uiso   1.00
S3     S     0.81845   0.81656   0.59676   0.01267  Uiso   1.00
S4     S     0.69901   0.74087   0.85525   0.01267  Uiso   1.00
S5     S     0.31845   0.59676   0.81656   0.01267  Uiso   1.00
S6     S     0.19901   0.85525   0.74087   0.01267  Uiso   1.00
S7     S     0.18155   0.18344   0.40324   0.01267  Uiso   1.00
S8     S     0.30099   0.25913   0.14475   0.01267  Uiso   1.00
N1     N     0.12530   0.89371   0.35701   0.01267  Uiso   1.00
N2     N     0.37470   0.64299   0.10629   0.01267  Uiso   1.00
N3     N     0.87470   0.10629   0.64299   0.01267  Uiso   1.00
N4     N     0.62530   0.35701   0.89371   0.01267  Uiso   1.00
O1     O     0.92520   0.67763   0.24503   0.01267  Uiso   1.00
O2     O     0.82240   0.80132   0.39156   0.01267  Uiso   1.00
O3     O     0.79980   0.93821   0.26895   0.01267  Uiso   1.00
O4     O     0.56940   0.86483   0.16935   0.01267  Uiso   1.00
O5     O     0.57480   0.75497   0.32237   0.01267  Uiso   1.00
O6     O     0.67760   0.60844   0.19868   0.01267  Uiso   1.00
O7     O     0.70020   0.73105   0.06179   0.01267  Uiso   1.00
O8     O     0.93060   0.83065   0.13517   0.01267  Uiso   1.00
O9     O     0.07480   0.32237   0.75497   0.01267  Uiso   1.00
O10    O     0.17760   0.19868   0.60844   0.01267  Uiso   1.00
O11    O     0.20020   0.06179   0.73105   0.01267  Uiso   1.00
O12    O     0.43060   0.13517   0.83065   0.01267  Uiso   1.00
O13    O     0.42520   0.24503   0.67763   0.01267  Uiso   1.00
O14    O     0.32240   0.39156   0.80132   0.01267  Uiso   1.00
O15    O     0.29980   0.26895   0.93821   0.01267  Uiso   1.00
O16    O     0.06940   0.16935   0.86483   0.01267  Uiso   1.00
