data_HAFVUH_clean
_audit_creation_date              2014-07-02
_audit_creation_method            'Materials Studio'
_symmetry_space_group_name_H-M    'P1'
_symmetry_Int_Tables_number       1
_symmetry_cell_setting            triclinic
loop_
_symmetry_equiv_pos_as_xyz
  x,y,z
_cell_length_a                    12.3010
_cell_length_b                    12.4403
_cell_length_c                    12.4403
_cell_angle_alpha                 75.8517
_cell_angle_beta                  60.3698
_cell_angle_gamma                 60.3698
loop_
_atom_site_label
_atom_site_type_symbol
_atom_site_fract_x
_atom_site_fract_y
_atom_site_fract_z
_atom_site_U_iso_or_equiv
_atom_site_adp_type
_atom_site_occupancy
Mg1    Mg    0.31520   0.00000   0.36960   0.01267  Uiso   1.00
Mg2    Mg    0.68480   0.00000   0.63040   0.01267  Uiso   1.00
Mg3    Mg    0.93480   0.13040   0.50000   0.01267  Uiso   1.00
Mg4    Mg    0.56520   0.86960   0.50000   0.01267  Uiso   1.00
H1     H     0.85920   0.94220   0.17620   0.01267  Uiso   1.00
H2     H     0.97760   0.05780   0.82380   0.01267  Uiso   1.00
H3     H     0.28540   0.32380   0.44220   0.01267  Uiso   1.00
H4     H     0.05140   0.67620   0.55780   0.01267  Uiso   1.00
H5     H     0.27240   0.67620   0.44220   0.01267  Uiso   1.00
H6     H     0.39080   0.32380   0.55780   0.01267  Uiso   1.00
H7     H     0.19860   0.94220   0.82380   0.01267  Uiso   1.00
H8     H     0.96460   0.05780   0.17620   0.01267  Uiso   1.00
H9     H     0.63610   0.00000   0.00000   0.01267  Uiso   1.00
H10    H     0.88610   0.50000   0.50000   0.01267  Uiso   1.00
H11    H     0.61390   0.50000   0.50000   0.01267  Uiso   1.00
H12    H     0.36390   0.00000   0.00000   0.01267  Uiso   1.00
C1     C     0.84410   0.96750   0.10590   0.01267  Uiso   1.00
C2     C     0.72740   0.97200   0.10880   0.01267  Uiso   1.00
C3     C     0.62050   0.94790   0.22750   0.01267  Uiso   1.00
C4     C     0.91750   0.03250   0.89410   0.01267  Uiso   1.00
C5     C     0.80820   0.02800   0.89120   0.01267  Uiso   1.00
C6     C     0.79590   0.05210   0.77250   0.01267  Uiso   1.00
C7     C     0.20000   0.39410   0.46750   0.01267  Uiso   1.00
C8     C     0.08620   0.39120   0.47200   0.01267  Uiso   1.00
C9     C     0.09800   0.27250   0.44790   0.01267  Uiso   1.00
C10    C     0.06160   0.60590   0.53250   0.01267  Uiso   1.00
C11    C     0.94940   0.60880   0.52800   0.01267  Uiso   1.00
C12    C     0.81840   0.72750   0.55210   0.01267  Uiso   1.00
C13    C     0.33250   0.60590   0.46750   0.01267  Uiso   1.00
C14    C     0.44180   0.60880   0.47200   0.01267  Uiso   1.00
C15    C     0.45410   0.72750   0.44790   0.01267  Uiso   1.00
C16    C     0.40590   0.39410   0.53250   0.01267  Uiso   1.00
C17    C     0.52260   0.39120   0.52800   0.01267  Uiso   1.00
C18    C     0.62950   0.27250   0.55210   0.01267  Uiso   1.00
C19    C     0.18840   0.96750   0.89410   0.01267  Uiso   1.00
C20    C     0.30060   0.97200   0.89120   0.01267  Uiso   1.00
C21    C     0.43160   0.94790   0.77250   0.01267  Uiso   1.00
C22    C     0.05000   0.03250   0.10590   0.01267  Uiso   1.00
C23    C     0.16380   0.02800   0.10880   0.01267  Uiso   1.00
C24    C     0.15200   0.05210   0.22750   0.01267  Uiso   1.00
C25    C     0.93900   0.00000   0.00000   0.01267  Uiso   1.00
C26    C     0.71170  -0.00000   0.00000   0.01267  Uiso   1.00
C27    C     0.18900   0.50000   0.50000   0.01267  Uiso   1.00
C28    C     0.96170   0.50000   0.50000   0.01267  Uiso   1.00
C29    C     0.31100   0.50000   0.50000   0.01267  Uiso   1.00
C30    C     0.53830   0.50000   0.50000   0.01267  Uiso   1.00
C31    C     0.06100   0.00000   0.00000   0.01267  Uiso   1.00
C32    C     0.28830   0.00000   0.00000   0.01267  Uiso   1.00
O1     O     0.49910   0.99520   0.23580   0.01267  Uiso   1.00
O2     O     0.65746   0.88577   0.30811   0.01267  Uiso   1.00
O3     O     0.73010   0.00480   0.76420   0.01267  Uiso   1.00
O4     O     0.85134   0.11423   0.69189   0.01267  Uiso   1.00
O5     O     0.98490   0.26420   0.49520   0.01267  Uiso   1.00
O6     O     0.21557   0.19189   0.38577   0.01267  Uiso   1.00
O7     O     0.74430   0.73580   0.50480   0.01267  Uiso   1.00
O8     O     0.79323   0.80811   0.61423   0.01267  Uiso   1.00
O9     O     0.51990   0.73580   0.49520   0.01267  Uiso   1.00
O10    O     0.39866   0.80811   0.38577   0.01267  Uiso   1.00
O11    O     0.75090   0.26420   0.50480   0.01267  Uiso   1.00
O12    O     0.59254   0.19189   0.61423   0.01267  Uiso   1.00
O13    O     0.50570   0.99520   0.76420   0.01267  Uiso   1.00
O14    O     0.45677   0.88577   0.69189   0.01267  Uiso   1.00
O15    O     0.26510   0.00480   0.23580   0.01267  Uiso   1.00
O16    O     0.03443   0.11423   0.30811   0.01267  Uiso   1.00
O17    O     0.12500   0.99460   0.50540   0.01267  Uiso   1.00
O18    O     0.62500   0.00540   0.49460   0.01267  Uiso   1.00
O19    O     0.88040   0.99460   0.49460   0.01267  Uiso   1.00
O20    O     0.36960   0.00540   0.50540   0.01267  Uiso   1.00
