data_HAWYUB_clean
_audit_creation_date              2014-07-02
_audit_creation_method            'Materials Studio'
_symmetry_space_group_name_H-M    'P1'
_symmetry_Int_Tables_number       1
_symmetry_cell_setting            triclinic
loop_
_symmetry_equiv_pos_as_xyz
  x,y,z
_cell_length_a                    6.9180
_cell_length_b                    14.2370
_cell_length_c                    15.3850
_cell_angle_alpha                 90.0000
_cell_angle_beta                  96.6220
_cell_angle_gamma                 90.0000
loop_
_atom_site_label
_atom_site_type_symbol
_atom_site_fract_x
_atom_site_fract_y
_atom_site_fract_z
_atom_site_U_iso_or_equiv
_atom_site_adp_type
_atom_site_occupancy
Cd1    Cd    0.54525   0.80410   0.31395   0.01267  Uiso   1.00
Cd2    Cd    0.95475   0.30410   0.68605   0.01267  Uiso   1.00
Cd3    Cd    0.45475   0.19590   0.68605   0.01267  Uiso   1.00
Cd4    Cd    0.04525   0.69590   0.31395   0.01267  Uiso   1.00
H1     H     0.81010   0.13960   0.41150   0.01267  Uiso   1.00
H2     H     0.72260   0.01780   0.31780   0.01267  Uiso   1.00
H3     H     0.66140   0.85040   0.51520   0.01267  Uiso   1.00
H4     H     0.73970   0.96940   0.61230   0.01267  Uiso   1.00
H5     H     0.65610   0.98690   0.06300   0.01267  Uiso   1.00
H6     H     0.68610   0.09390   0.93560   0.01267  Uiso   1.00
H7     H     0.13570   0.84860   0.16690   0.01267  Uiso   1.00
H8     H     0.68990   0.63960   0.58850   0.01267  Uiso   1.00
H9     H     0.77740   0.51780   0.68220   0.01267  Uiso   1.00
H10    H     0.83860   0.35040   0.48480   0.01267  Uiso   1.00
H11    H     0.76030   0.46940   0.38770   0.01267  Uiso   1.00
H12    H     0.84390   0.48690   0.93700   0.01267  Uiso   1.00
H13    H     0.81390   0.59390   0.06440   0.01267  Uiso   1.00
H14    H     0.36430   0.34860   0.83310   0.01267  Uiso   1.00
H15    H     0.18990   0.86040   0.58850   0.01267  Uiso   1.00
H16    H     0.27740   0.98220   0.68220   0.01267  Uiso   1.00
H17    H     0.33860   0.14960   0.48480   0.01267  Uiso   1.00
H18    H     0.26030   0.03060   0.38770   0.01267  Uiso   1.00
H19    H     0.34390   0.01310   0.93700   0.01267  Uiso   1.00
H20    H     0.31390   0.90610   0.06440   0.01267  Uiso   1.00
H21    H     0.86430   0.15140   0.83310   0.01267  Uiso   1.00
H22    H     0.31010   0.36040   0.41150   0.01267  Uiso   1.00
H23    H     0.22260   0.48220   0.31780   0.01267  Uiso   1.00
H24    H     0.16140   0.64960   0.51520   0.01267  Uiso   1.00
H25    H     0.23970   0.53060   0.61230   0.01267  Uiso   1.00
H26    H     0.15610   0.51310   0.06300   0.01267  Uiso   1.00
H27    H     0.18610   0.40610   0.93560   0.01267  Uiso   1.00
H28    H     0.63570   0.65140   0.16690   0.01267  Uiso   1.00
C1     C     0.83500   0.14630   0.58530   0.01267  Uiso   1.00
C2     C     0.78500   0.06760   0.52190   0.01267  Uiso   1.00
C3     C     0.77900   0.08140   0.43350   0.01267  Uiso   1.00
C4     C     0.72600   0.00810   0.37770   0.01267  Uiso   1.00
C5     C     0.68900   0.90940   0.49380   0.01267  Uiso   1.00
C6     C     0.73800   0.98010   0.55260   0.01267  Uiso   1.00
C7     C     0.76200   0.86370   0.18760   0.01267  Uiso   1.00
C8     C     0.87500   0.90480   0.12000   0.01267  Uiso   1.00
C9     C     0.78600   0.97010   0.06180   0.01267  Uiso   1.00
C10    C     0.90100   0.01140   0.99900   0.01267  Uiso   1.00
C11    C     0.81600   0.07700   0.93610   0.01267  Uiso   1.00
C12    C     0.07600   0.88690   0.12280   0.01267  Uiso   1.00
C13    C     0.66500   0.64630   0.41470   0.01267  Uiso   1.00
C14    C     0.71500   0.56760   0.47810   0.01267  Uiso   1.00
C15    C     0.72100   0.58140   0.56650   0.01267  Uiso   1.00
C16    C     0.77400   0.50810   0.62230   0.01267  Uiso   1.00
C17    C     0.81100   0.40940   0.50620   0.01267  Uiso   1.00
C18    C     0.76200   0.48010   0.44740   0.01267  Uiso   1.00
C19    C     0.73800   0.36370   0.81240   0.01267  Uiso   1.00
C20    C     0.62500   0.40480   0.88000   0.01267  Uiso   1.00
C21    C     0.71400   0.47010   0.93820   0.01267  Uiso   1.00
C22    C     0.59900   0.51140   0.00100   0.01267  Uiso   1.00
C23    C     0.68400   0.57700   0.06390   0.01267  Uiso   1.00
C24    C     0.42400   0.38690   0.87720   0.01267  Uiso   1.00
C25    C     0.16500   0.85370   0.41470   0.01267  Uiso   1.00
C26    C     0.21500   0.93240   0.47810   0.01267  Uiso   1.00
C27    C     0.22100   0.91860   0.56650   0.01267  Uiso   1.00
C28    C     0.27400   0.99190   0.62230   0.01267  Uiso   1.00
C29    C     0.31100   0.09060   0.50620   0.01267  Uiso   1.00
C30    C     0.26200   0.01990   0.44740   0.01267  Uiso   1.00
C31    C     0.23800   0.13630   0.81240   0.01267  Uiso   1.00
C32    C     0.12500   0.09520   0.88000   0.01267  Uiso   1.00
C33    C     0.21400   0.02990   0.93820   0.01267  Uiso   1.00
C34    C     0.09900   0.98860   0.00100   0.01267  Uiso   1.00
C35    C     0.18400   0.92300   0.06390   0.01267  Uiso   1.00
C36    C     0.92400   0.11310   0.87720   0.01267  Uiso   1.00
C37    C     0.33500   0.35370   0.58530   0.01267  Uiso   1.00
C38    C     0.28500   0.43240   0.52190   0.01267  Uiso   1.00
C39    C     0.27900   0.41860   0.43350   0.01267  Uiso   1.00
C40    C     0.22600   0.49190   0.37770   0.01267  Uiso   1.00
C41    C     0.18900   0.59060   0.49380   0.01267  Uiso   1.00
C42    C     0.23800   0.51990   0.55260   0.01267  Uiso   1.00
C43    C     0.26200   0.63630   0.18760   0.01267  Uiso   1.00
C44    C     0.37500   0.59520   0.12000   0.01267  Uiso   1.00
C45    C     0.28600   0.52990   0.06180   0.01267  Uiso   1.00
C46    C     0.40100   0.48860   0.99900   0.01267  Uiso   1.00
C47    C     0.31600   0.42300   0.93610   0.01267  Uiso   1.00
C48    C     0.57600   0.61310   0.12280   0.01267  Uiso   1.00
N1     N     0.68000   0.92100   0.40720   0.01267  Uiso   1.00
N2     N     0.82000   0.42100   0.59280   0.01267  Uiso   1.00
N3     N     0.32000   0.07900   0.59280   0.01267  Uiso   1.00
N4     N     0.18000   0.57900   0.40720   0.01267  Uiso   1.00
O1     O     0.76800   0.15040   0.66110   0.01267  Uiso   1.00
O2     O     0.94800   0.21030   0.56460   0.01267  Uiso   1.00
O3     O     0.83320   0.79950   0.23680   0.01267  Uiso   1.00
O4     O     0.58830   0.89730   0.19350   0.01267  Uiso   1.00
O5     O     0.73200   0.65040   0.33890   0.01267  Uiso   1.00
O6     O     0.55200   0.71030   0.43540   0.01267  Uiso   1.00
O7     O     0.66680   0.29950   0.76320   0.01267  Uiso   1.00
O8     O     0.91170   0.39730   0.80650   0.01267  Uiso   1.00
O9     O     0.23200   0.84960   0.33890   0.01267  Uiso   1.00
O10    O     0.05200   0.78970   0.43540   0.01267  Uiso   1.00
O11    O     0.16680   0.20050   0.76320   0.01267  Uiso   1.00
O12    O     0.41170   0.10270   0.80650   0.01267  Uiso   1.00
O13    O     0.26800   0.34960   0.66110   0.01267  Uiso   1.00
O14    O     0.44800   0.28970   0.56460   0.01267  Uiso   1.00
O15    O     0.33320   0.70050   0.23680   0.01267  Uiso   1.00
O16    O     0.08830   0.60270   0.19350   0.01267  Uiso   1.00
