data_HEFDON_ion_b
_audit_creation_date              2014-07-02
_audit_creation_method            'Materials Studio'
_symmetry_space_group_name_H-M    'P1'
_symmetry_Int_Tables_number       1
_symmetry_cell_setting            triclinic
loop_
_symmetry_equiv_pos_as_xyz
  x,y,z
_cell_length_a                    9.9445
_cell_length_b                    18.5391
_cell_length_c                    20.2889
_cell_angle_alpha                 88.9040
_cell_angle_beta                  83.6480
_cell_angle_gamma                 86.7130
loop_
_atom_site_label
_atom_site_type_symbol
_atom_site_fract_x
_atom_site_fract_y
_atom_site_fract_z
_atom_site_U_iso_or_equiv
_atom_site_adp_type
_atom_site_occupancy
Cd1    Cd    0.61289   0.45305   0.03887   0.00000  Uiso   1.00
Cd2    Cd    0.89934   0.95876   0.45562   0.00000  Uiso   1.00
Cd3    Cd    0.41284   0.97102   0.01904   0.00000  Uiso   1.00
Ba4    Ba    0.04270   0.24190   0.57638   0.00000  Uiso   1.00
C5     C     0.01560   0.11490   0.41570   0.00000  Uiso   1.00
C6     C     0.03530   0.16790   0.35880   0.00000  Uiso   1.00
C7     C     0.11410   0.22720   0.36310   0.00000  Uiso   1.00
H8     H     0.15630   0.23430   0.40200   0.00000  Uiso   1.00
C9     C     0.13040   0.27560   0.31050   0.00000  Uiso   1.00
H10    H     0.18460   0.31570   0.31360   0.00000  Uiso   1.00
C11    C     0.06850   0.26640   0.25310   0.00000  Uiso   1.00
C12    C     0.99300   0.20620   0.24880   0.00000  Uiso   1.00
H13    H     0.95360   0.19830   0.20920   0.00000  Uiso   1.00
C14    C     0.97430   0.15760   0.30120   0.00000  Uiso   1.00
H15    H     0.92020   0.11750   0.29800   0.00000  Uiso   1.00
C16    C     0.08040   0.31880   0.19740   0.00000  Uiso   1.00
C17    C     0.20660   0.34620   0.17500   0.00000  Uiso   1.00
H18    H     0.28370   0.33220   0.19700   0.00000  Uiso   1.00
C19    C     0.21990   0.39360   0.12090   0.00000  Uiso   1.00
C20    C     0.10840   0.41620   0.08930   0.00000  Uiso   1.00
H21    H     0.11660   0.44910   0.05290   0.00000  Uiso   1.00
C22    C     0.98290   0.38920   0.11240   0.00000  Uiso   1.00
C23    C     0.97110   0.34150   0.16460   0.00000  Uiso   1.00
H24    H     0.88500   0.32340   0.17860   0.00000  Uiso   1.00
C25    C     0.85840   0.41500   0.07930   0.00000  Uiso   1.00
C26    C     0.35750   0.41610   0.09300   0.00000  Uiso   1.00
C27    C     0.52830   0.39780   0.90430   0.00000  Uiso   1.00
C28    C     0.53470   0.34070   0.85160   0.00000  Uiso   1.00
C29    C     0.45360   0.34850   0.80270   0.00000  Uiso   1.00
H30    H     0.39200   0.38960   0.80220   0.00000  Uiso   1.00
C31    C     0.45820   0.29700   0.75230   0.00000  Uiso   1.00
H32    H     0.40150   0.30390   0.71770   0.00000  Uiso   1.00
C33    C     0.54580   0.23610   0.75330   0.00000  Uiso   1.00
C34    C     0.62270   0.22690   0.80510   0.00000  Uiso   1.00
H35    H     0.68020   0.18450   0.80760   0.00000  Uiso   1.00
C36    C     0.61790   0.27840   0.85380   0.00000  Uiso   1.00
H37    H     0.67240   0.27100   0.88930   0.00000  Uiso   1.00
C38    C     0.55260   0.18330   0.69960   0.00000  Uiso   1.00
C39    C     0.43540   0.16350   0.67490   0.00000  Uiso   1.00
H40    H     0.35020   0.18560   0.69160   0.00000  Uiso   1.00
C41    C     0.44200   0.11080   0.62530   0.00000  Uiso   1.00
C42    C     0.56560   0.07950   0.59930   0.00000  Uiso   1.00
H43    H     0.56980   0.04400   0.56590   0.00000  Uiso   1.00
C44    C     0.68420   0.10060   0.62260   0.00000  Uiso   1.00
C45    C     0.67730   0.15120   0.67290   0.00000  Uiso   1.00
H46    H     0.75830   0.16410   0.68940   0.00000  Uiso   1.00
C47    C     0.81910   0.07060   0.59010   0.00000  Uiso   1.00
C48    C     0.31550   0.08730   0.59840   0.00000  Uiso   1.00
C49    C     0.04170   0.60460   0.09550   0.00000  Uiso   1.00
H50    H     0.00740   0.56000   0.08040   0.00000  Uiso   1.00
H51    H     0.13600   0.60860   0.07650   0.00000  Uiso   1.00
H52    H     0.03700   0.60370   0.14410   0.00000  Uiso   1.00
C53    C     0.83250   0.65960   0.06060   0.00000  Uiso   1.00
H54    H     0.79720   0.61300   0.06280   0.00000  Uiso   1.00
C55    C     0.75480   0.71920   0.04390   0.00000  Uiso   1.00
H56    H     0.66520   0.71290   0.03380   0.00000  Uiso   1.00
C57    C     0.80150   0.78800   0.04100   0.00000  Uiso   1.00
C58    C     0.93410   0.79330   0.05540   0.00000  Uiso   1.00
H59    H     0.97210   0.83920   0.05520   0.00000  Uiso   1.00
C60    C     0.00710   0.73430   0.06950   0.00000  Uiso   1.00
H61    H     0.09880   0.73860   0.07710   0.00000  Uiso   1.00
C62    C     0.67040   0.89880   0.08320   0.00000  Uiso   1.00
C63    C     0.70560   0.88420   0.14930   0.00000  Uiso   1.00
H64    H     0.75940   0.84420   0.16360   0.00000  Uiso   1.00
C65    C     0.64710   0.93860   0.18630   0.00000  Uiso   1.00
H66    H     0.65190   0.94420   0.23240   0.00000  Uiso   1.00
C67    C     0.57500   0.98750   0.14420   0.00000  Uiso   1.00
C68    C     0.71110   0.85280   0.02660   0.00000  Uiso   1.00
C69    C     0.67950   0.86210   0.96170   0.00000  Uiso   1.00
C70    C     0.72630   0.81640   0.90690   0.00000  Uiso   1.00
H71    H     0.78750   0.77520   0.90810   0.00000  Uiso   1.00
C72    C     0.66860   0.84180   0.85360   0.00000  Uiso   1.00
H73    H     0.67890   0.82110   0.81070   0.00000  Uiso   1.00
C74    C     0.58730   0.90710   0.87410   0.00000  Uiso   1.00
C75    C     0.49450   0.04980   0.16430   0.00000  Uiso   1.00
C76    C     0.49550   0.06920   0.23490   0.00000  Uiso   1.00
C77    C     0.37520   0.07490   0.27950   0.00000  Uiso   1.00
H78    H     0.28990   0.06730   0.26470   0.00000  Uiso   1.00
C79    C     0.38390   0.09150   0.34490   0.00000  Uiso   1.00
H80    H     0.30320   0.09670   0.37450   0.00000  Uiso   1.00
C81    C     0.50290   0.11710   0.43740   0.00000  Uiso   1.00
H82    H     0.45500   0.08050   0.46480   0.00000  Uiso   1.00
H83    H     0.45800   0.16480   0.44660   0.00000  Uiso   1.00
H84    H     0.59690   0.11700   0.44770   0.00000  Uiso   1.00
C85    C     0.61700   0.09650   0.32590   0.00000  Uiso   1.00
H86    H     0.70080   0.10420   0.34230   0.00000  Uiso   1.00
C87    C     0.61480   0.08150   0.26100   0.00000  Uiso   1.00
H88    H     0.69750   0.07950   0.23250   0.00000  Uiso   1.00
Cl89   Cl    0.22000   0.89910   0.06720   0.00000  Uiso   1.00
N90    N     0.59230   0.91560   0.94040   0.00000  Uiso   1.00
N91    N     0.59700   0.96150   0.08020   0.00000  Uiso   1.00
N92    N     0.95690   0.66840   0.07350   0.00000  Uiso   1.00
N93    N     0.50130   0.10050   0.36720   0.00000  Uiso   1.00
O94    O     0.92970   0.06770   0.41040   0.00000  Uiso   1.00
O95    O     0.08120   0.12300   0.46310   0.00000  Uiso   1.00
O96    O     0.76300   0.37180   0.08250   0.00000  Uiso   1.00
O97    O     0.85390   0.47410   0.05160   0.00000  Uiso   1.00
O98    O     0.36480   0.45120   0.03890   0.00000  Uiso   1.00
O99    O     0.45890   0.39600   0.12020   0.00000  Uiso   1.00
O100   O     0.61120   0.38760   0.94780   0.00000  Uiso   1.00
O101   O     0.44160   0.44780   0.89970   0.00000  Uiso   1.00
O102   O     0.92320   0.09440   0.60620   0.00000  Uiso   1.00
O103   O     0.81730   0.02250   0.55020   0.00000  Uiso   1.00
O104   O     0.32060   0.03340   0.56710   0.00000  Uiso   1.00
O105   O     0.21070   0.12560   0.60990   0.00000  Uiso   1.00
Cd110  Cd    0.38711   0.54695   0.96113   0.00000  Uiso   1.00
Cd111  Cd    0.10066   0.04124   0.54438   0.00000  Uiso   1.00
Cd112  Cd    0.58716   0.02898   0.98096   0.00000  Uiso   1.00
Ba113  Ba    0.95730   0.75810   0.42362   0.00000  Uiso   1.00
C114   C     0.98440   0.88510   0.58430   0.00000  Uiso   1.00
C115   C     0.96470   0.83210   0.64120   0.00000  Uiso   1.00
C116   C     0.88590   0.77280   0.63690   0.00000  Uiso   1.00
H117   H     0.84370   0.76570   0.59800   0.00000  Uiso   1.00
C118   C     0.86960   0.72440   0.68950   0.00000  Uiso   1.00
H119   H     0.81540   0.68430   0.68640   0.00000  Uiso   1.00
C120   C     0.93150   0.73360   0.74690   0.00000  Uiso   1.00
C121   C     0.00700   0.79380   0.75120   0.00000  Uiso   1.00
H122   H     0.04640   0.80170   0.79080   0.00000  Uiso   1.00
C123   C     0.02570   0.84240   0.69880   0.00000  Uiso   1.00
H124   H     0.07980   0.88250   0.70200   0.00000  Uiso   1.00
C125   C     0.91960   0.68120   0.80260   0.00000  Uiso   1.00
C126   C     0.79340   0.65380   0.82500   0.00000  Uiso   1.00
H127   H     0.71630   0.66780   0.80300   0.00000  Uiso   1.00
C128   C     0.78010   0.60640   0.87910   0.00000  Uiso   1.00
C129   C     0.89160   0.58380   0.91070   0.00000  Uiso   1.00
H130   H     0.88340   0.55090   0.94710   0.00000  Uiso   1.00
C131   C     0.01710   0.61080   0.88760   0.00000  Uiso   1.00
C132   C     0.02890   0.65850   0.83540   0.00000  Uiso   1.00
H133   H     0.11500   0.67660   0.82140   0.00000  Uiso   1.00
C134   C     0.14160   0.58500   0.92070   0.00000  Uiso   1.00
C135   C     0.64250   0.58390   0.90700   0.00000  Uiso   1.00
C136   C     0.47170   0.60220   0.09570   0.00000  Uiso   1.00
C137   C     0.46530   0.65930   0.14840   0.00000  Uiso   1.00
C138   C     0.54640   0.65150   0.19730   0.00000  Uiso   1.00
H139   H     0.60800   0.61040   0.19780   0.00000  Uiso   1.00
C140   C     0.54180   0.70300   0.24770   0.00000  Uiso   1.00
H141   H     0.59850   0.69610   0.28230   0.00000  Uiso   1.00
C142   C     0.45420   0.76390   0.24670   0.00000  Uiso   1.00
C143   C     0.37730   0.77310   0.19490   0.00000  Uiso   1.00
H144   H     0.31980   0.81550   0.19240   0.00000  Uiso   1.00
C145   C     0.38210   0.72160   0.14620   0.00000  Uiso   1.00
H146   H     0.32760   0.72900   0.11070   0.00000  Uiso   1.00
C147   C     0.44740   0.81670   0.30040   0.00000  Uiso   1.00
C148   C     0.56460   0.83650   0.32510   0.00000  Uiso   1.00
H149   H     0.64980   0.81440   0.30840   0.00000  Uiso   1.00
C150   C     0.55800   0.88920   0.37470   0.00000  Uiso   1.00
C151   C     0.43440   0.92050   0.40070   0.00000  Uiso   1.00
H152   H     0.43020   0.95600   0.43410   0.00000  Uiso   1.00
C153   C     0.31580   0.89940   0.37740   0.00000  Uiso   1.00
C154   C     0.32270   0.84880   0.32710   0.00000  Uiso   1.00
H155   H     0.24170   0.83590   0.31060   0.00000  Uiso   1.00
C156   C     0.18090   0.92940   0.40990   0.00000  Uiso   1.00
C157   C     0.68450   0.91270   0.40160   0.00000  Uiso   1.00
C158   C     0.95830   0.39540   0.90450   0.00000  Uiso   1.00
H159   H     0.99260   0.44000   0.91960   0.00000  Uiso   1.00
H160   H     0.86400   0.39140   0.92350   0.00000  Uiso   1.00
H161   H     0.96300   0.39630   0.85590   0.00000  Uiso   1.00
C162   C     0.16750   0.34040   0.93940   0.00000  Uiso   1.00
H163   H     0.20280   0.38700   0.93720   0.00000  Uiso   1.00
C164   C     0.24520   0.28080   0.95610   0.00000  Uiso   1.00
H165   H     0.33480   0.28710   0.96620   0.00000  Uiso   1.00
C166   C     0.19850   0.21200   0.95900   0.00000  Uiso   1.00
C167   C     0.06590   0.20670   0.94460   0.00000  Uiso   1.00
H168   H     0.02790   0.16080   0.94480   0.00000  Uiso   1.00
C169   C     0.99290   0.26570   0.93050   0.00000  Uiso   1.00
H170   H     0.90120   0.26140   0.92290   0.00000  Uiso   1.00
C171   C     0.32960   0.10120   0.91680   0.00000  Uiso   1.00
C172   C     0.29440   0.11580   0.85070   0.00000  Uiso   1.00
H173   H     0.24060   0.15580   0.83640   0.00000  Uiso   1.00
C174   C     0.35290   0.06140   0.81370   0.00000  Uiso   1.00
H175   H     0.34810   0.05580   0.76760   0.00000  Uiso   1.00
C176   C     0.42500   0.01250   0.85580   0.00000  Uiso   1.00
C177   C     0.28890   0.14720   0.97340   0.00000  Uiso   1.00
C178   C     0.32050   0.13790   0.03830   0.00000  Uiso   1.00
C179   C     0.27370   0.18360   0.09310   0.00000  Uiso   1.00
H180   H     0.21250   0.22480   0.09190   0.00000  Uiso   1.00
C181   C     0.33140   0.15820   0.14640   0.00000  Uiso   1.00
H182   H     0.32110   0.17890   0.18930   0.00000  Uiso   1.00
C183   C     0.41270   0.09290   0.12590   0.00000  Uiso   1.00
C184   C     0.50550   0.95020   0.83570   0.00000  Uiso   1.00
C185   C     0.50450   0.93080   0.76510   0.00000  Uiso   1.00
C186   C     0.62480   0.92510   0.72050   0.00000  Uiso   1.00
H187   H     0.71010   0.93270   0.73530   0.00000  Uiso   1.00
C188   C     0.61610   0.90850   0.65510   0.00000  Uiso   1.00
H189   H     0.69680   0.90330   0.62550   0.00000  Uiso   1.00
C190   C     0.49710   0.88290   0.56260   0.00000  Uiso   1.00
H191   H     0.54500   0.91950   0.53520   0.00000  Uiso   1.00
H192   H     0.54200   0.83520   0.55340   0.00000  Uiso   1.00
H193   H     0.40310   0.88300   0.55230   0.00000  Uiso   1.00
C194   C     0.38300   0.90350   0.67410   0.00000  Uiso   1.00
H195   H     0.29920   0.89580   0.65770   0.00000  Uiso   1.00
C196   C     0.38520   0.91850   0.73900   0.00000  Uiso   1.00
H197   H     0.30250   0.92050   0.76750   0.00000  Uiso   1.00
Cl198  Cl    0.78000   0.10090   0.93280   0.00000  Uiso   1.00
N199   N     0.40770   0.08440   0.05960   0.00000  Uiso   1.00
N200   N     0.40300   0.03850   0.91980   0.00000  Uiso   1.00
N201   N     0.04310   0.33160   0.92650   0.00000  Uiso   1.00
N202   N     0.49870   0.89950   0.63280   0.00000  Uiso   1.00
O203   O     0.07030   0.93230   0.58960   0.00000  Uiso   1.00
O204   O     0.91880   0.87700   0.53690   0.00000  Uiso   1.00
O205   O     0.23700   0.62820   0.91750   0.00000  Uiso   1.00
O206   O     0.14610   0.52590   0.94840   0.00000  Uiso   1.00
O207   O     0.63520   0.54880   0.96110   0.00000  Uiso   1.00
O208   O     0.54110   0.60400   0.87980   0.00000  Uiso   1.00
O209   O     0.38880   0.61240   0.05220   0.00000  Uiso   1.00
O210   O     0.55840   0.55220   0.10030   0.00000  Uiso   1.00
O211   O     0.07680   0.90560   0.39380   0.00000  Uiso   1.00
O212   O     0.18270   0.97750   0.44980   0.00000  Uiso   1.00
O213   O     0.67940   0.96660   0.43290   0.00000  Uiso   1.00
O214   O     0.78930   0.87440   0.39010   0.00000  Uiso   1.00
loop_
_geom_bond_atom_site_label_1
_geom_bond_atom_site_label_2
_geom_bond_distance
_geom_bond_site_symmetry_2
_ccdc_geom_bond_type
Cd1    O96     2.294   .     S
Cd1    O98     2.469   .     S
Cd1    O99     2.397   .     S
Cd1    O210    2.247   .     S
Cd1    O100    2.232   1_554 S
Cd1    O207    2.356   1_554 S
Cd2    O204    2.235   .     S
Cd2    O213    2.281   .     S
Cd2    O214    2.451   .     S
Cd2    O94     2.225   1_565 S
Cd2    O103    2.318   1_565 S
Cd2    O211    2.240   1_655 S
Cd3    Cl89    2.498   .     S
Cd3    N91     2.320   .     S
Cd3    N90     2.451   1_554 S
Cd3    Cd112   2.155   1_564 S
Cd3    N199    2.268   1_565 S
Cd3    N200    2.358   1_564 S
C5     C6      1.505   .     S
C5     O95     1.236   .     A
C5     O94     1.271   1_455 S
C6     C7      1.396   .     A
C6     C14     1.396   1_455 A
C7     H8      0.949   .     S
C7     C9      1.383   .     A
C9     H10     0.950   .     S
C9     C11     1.394   .     A
C11    C16     1.475   .     S
C11    C12     1.390   1_455 A
C12    H13     0.949   .     S
C12    C14     1.384   .     A
C12    C11     1.390   1_655 A
C14    H15     0.950   .     S
C14    C6      1.396   1_655 A
C16    C17     1.406   .     A
C16    C23     1.378   1_455 S
C17    H18     0.950   .     S
C17    C19     1.392   .     A
C19    C20     1.382   .     A
C19    C26     1.501   .     S
C20    H21     0.948   .     S
C20    C22     1.400   1_455 A
C22    C23     1.366   .     A
C22    C25     1.522   .     S
C22    C20     1.400   1_655 A
C23    H24     0.950   .     S
C23    C16     1.378   1_655 S
C25    O96     1.272   .     S
C25    O97     1.223   .     D
C26    O98     1.263   .     S
C26    O99     1.238   .     D
C27    C28     1.513   .     S
C27    O100    1.277   .     A
C27    O101    1.239   .     A
C28    C29     1.347   .     A
C28    C36     1.385   .     A
C29    H30     0.951   .     S
C29    C31     1.408   .     A
C31    H32     0.950   .     S
C31    C33     1.387   .     A
C33    C34     1.369   .     A
C33    C38     1.472   .     S
C34    H35     0.949   .     S
C34    C36     1.382   .     A
C36    H37     0.952   .     S
C38    C39     1.389   .     A
C38    C45     1.402   .     A
C39    H40     0.950   .     S
C39    C41     1.410   .     A
C41    C42     1.383   .     A
C41    C48     1.515   .     S
C42    H43     0.950   .     S
C42    C44     1.397   .     A
C44    C45     1.393   .     A
C44    C47     1.509   .     S
C45    H46     0.950   .     S
C47    O102    1.227   .     A
C47    O103    1.218   .     A
C48    O104    1.190   .     A
C48    O105    1.230   .     A
C49    H50     0.979   .     S
C49    H51     0.980   .     S
C49    H52     0.982   .     S
C49    N92     1.503   1_455 A
C53    H54     0.949   .     S
C53    C55     1.371   .     D
C53    N92     1.312   .     S
C55    H56     0.950   .     S
C55    C57     1.380   .     S
C57    C58     1.391   .     S
C57    C68     1.503   .     D
C58    H59     0.950   .     S
C58    C60     1.322   1_655 S
C60    H61     0.950   .     S
C60    C58     1.322   1_455 S
C60    N92     1.344   1_455 S
C62    C63     1.440   .     D
C62    C68     1.451   .     S
C62    N91     1.341   .     S
C63    H64     0.949   .     S
C63    C65     1.336   .     S
C65    H66     0.950   .     S
C65    C67     1.448   .     D
C67    N91     1.384   .     S
C67    C75     1.407   1_565 A
C68    C69     1.392   1_554 A
C69    C70     1.431   .     D
C69    N90     1.375   .     S
C69    C68     1.392   1_556 A
C70    H71     0.951   .     S
C70    C72     1.344   .     S
C72    H73     0.951   .     S
C72    C74     1.458   .     D
C74    N90     1.364   .     S
C74    C184    1.396   .     S
C75    C76     1.485   .     D
C75    C183    1.396   .     S
C75    C67     1.407   1_545 A
C76    C77     1.418   .     S
C76    C87     1.384   .     S
C77    H78     0.949   .     S
C77    C79     1.381   .     D
C79    H80     0.949   .     S
C79    N93     1.318   .     S
C81    H82     0.980   .     S
C81    H83     0.979   .     S
C81    H84     0.980   .     S
C81    N93     1.465   .     S
C85    H86     0.950   .     S
C85    C87     1.354   .     D
C85    N93     1.346   .     S
C87    H88     0.951   .     S
N90    Cd3     2.451   1_556 S
N90    Cd112   2.268   1_565 S
N91    Cd112   2.358   1_564 S
N92    C49     1.503   1_655 A
N92    C60     1.344   1_655 S
O94    Cd2     2.225   1_545 S
O94    C5      1.271   1_655 S
O95    Cd111   2.235   .     S
O98    Cd110   2.356   1_554 S
O100   Cd1     2.232   1_556 S
O101   Cd110   2.247   .     S
O102   Cd111   2.240   1_655 A
O103   Cd2     2.318   1_545 S
O104   Cd111   2.281   .     S
O105   Cd111   2.451   .     S
Cd110  O205    2.294   .     S
Cd110  O207    2.469   .     S
Cd110  O208    2.397   .     S
Cd110  O98     2.356   1_556 S
Cd110  O209    2.232   1_556 S
Cd111  O102    2.240   1_455 A
Cd111  O203    2.225   1_545 S
Cd111  O212    2.318   1_545 A
Cd112  Cl198   2.498   .     S
Cd112  N200    2.320   .     S
Cd112  Cd3     2.155   1_546 S
Cd112  N90     2.268   1_545 S
Cd112  N91     2.358   1_546 S
Cd112  N199    2.451   1_556 A
C114   C115    1.505   .     S
C114   O204    1.236   .     A
C114   O203    1.271   1_655 S
C115   C116    1.396   .     A
C115   C123    1.396   1_655 A
C116   H117    0.949   .     S
C116   C118    1.383   .     A
C118   H119    0.950   .     S
C118   C120    1.394   .     A
C120   C125    1.475   .     S
C120   C121    1.390   1_655 A
C121   H122    0.949   .     S
C121   C123    1.384   .     A
C121   C120    1.390   1_455 A
C123   H124    0.950   .     S
C123   C115    1.396   1_455 A
C125   C126    1.406   .     A
C125   C132    1.378   1_655 A
C126   H127    0.950   .     S
C126   C128    1.392   .     A
C128   C129    1.382   .     A
C128   C135    1.501   .     S
C129   H130    0.948   .     S
C129   C131    1.400   1_655 S
C131   C132    1.366   .     A
C131   C134    1.522   .     S
C131   C129    1.400   1_455 S
C132   H133    0.950   .     S
C132   C125    1.378   1_455 A
C134   O205    1.272   .     S
C134   O206    1.223   .     D
C135   O207    1.263   .     S
C135   O208    1.238   .     D
C136   C137    1.513   .     S
C136   O209    1.277   .     A
C136   O210    1.239   .     A
C137   C138    1.347   .     A
C137   C145    1.385   .     A
C138   H139    0.951   .     S
C138   C140    1.408   .     A
C140   H141    0.950   .     S
C140   C142    1.387   .     A
C142   C143    1.369   .     A
C142   C147    1.472   .     S
C143   H144    0.949   .     S
C143   C145    1.382   .     A
C145   H146    0.952   .     S
C147   C148    1.389   .     A
C147   C154    1.402   .     A
C148   H149    0.950   .     S
C148   C150    1.410   .     A
C150   C151    1.383   .     A
C150   C157    1.515   .     S
C151   H152    0.950   .     S
C151   C153    1.397   .     A
C153   C154    1.393   .     A
C153   C156    1.509   .     S
C154   H155    0.950   .     S
C156   O211    1.227   .     A
C156   O212    1.218   .     A
C157   O213    1.190   .     A
C157   O214    1.230   .     A
C158   H159    0.979   .     S
C158   H160    0.980   .     S
C158   H161    0.982   .     S
C158   N201    1.503   1_655 A
C162   H163    0.949   .     S
C162   C164    1.371   .     D
C162   N201    1.312   .     S
C164   H165    0.950   .     S
C164   C166    1.380   .     S
C166   C167    1.391   .     S
C166   C177    1.503   .     D
C167   H168    0.950   .     S
C167   C169    1.322   1_455 S
C169   H170    0.950   .     S
C169   C167    1.322   1_655 S
C169   N201    1.344   1_655 A
C171   C172    1.440   .     D
C171   C177    1.451   .     S
C171   N200    1.341   .     S
C172   H173    0.949   .     S
C172   C174    1.336   .     S
C174   H175    0.950   .     S
C174   C176    1.448   .     D
C176   N200    1.384   .     S
C176   C184    1.407   1_545 A
C177   C178    1.392   1_556 A
C178   C179    1.431   .     D
C178   N199    1.375   .     S
C178   C177    1.392   1_554 A
C179   H180    0.951   .     S
C179   C181    1.344   .     S
C181   H182    0.951   .     S
C181   C183    1.458   .     D
C183   N199    1.364   .     S
C184   C185    1.485   .     D
C184   C176    1.407   1_565 A
C185   C186    1.418   .     S
C185   C196    1.384   .     S
C186   H187    0.949   .     S
C186   C188    1.381   .     D
C188   H189    0.949   .     S
C188   N202    1.318   .     S
C190   H191    0.980   .     S
C190   H192    0.979   .     S
C190   H193    0.980   .     S
C190   N202    1.465   .     S
C194   H195    0.950   .     S
C194   C196    1.354   .     D
C194   N202    1.346   .     S
C196   H197    0.951   .     S
N199   Cd3     2.268   1_545 S
N199   Cd112   2.451   1_554 A
N200   Cd3     2.358   1_546 S
N201   C158    1.503   1_455 A
N201   C169    1.344   1_455 A
O203   Cd111   2.225   1_565 S
O203   C114    1.271   1_455 S
O207   Cd1     2.356   1_556 S
O209   Cd110   2.232   1_554 S
O211   Cd2     2.240   1_455 S
O212   Cd111   2.318   1_565 A
