data_HEFDUT_charged
_audit_creation_date              2014-07-02
_audit_creation_method            'Materials Studio'
_symmetry_space_group_name_H-M    'P1'
_symmetry_Int_Tables_number       1
_symmetry_cell_setting            triclinic
loop_
_symmetry_equiv_pos_as_xyz
  x,y,z
_cell_length_a                    18.3226
_cell_length_b                    19.9426
_cell_length_c                    21.8982
_cell_angle_alpha                 67.9450
_cell_angle_beta                  88.2900
_cell_angle_gamma                 85.0860
loop_
_atom_site_label
_atom_site_type_symbol
_atom_site_fract_x
_atom_site_fract_y
_atom_site_fract_z
_atom_site_U_iso_or_equiv
_atom_site_adp_type
_atom_site_occupancy
Cd1    Cd    0.05835   0.66631   0.54864   0.01267  Uiso   1.00
Cd2    Cd    0.96293   0.82219   0.46781   0.01267  Uiso   1.00
Cd3    Cd    0.54242   0.82861   0.95460   0.01267  Uiso   1.00
Cd4    Cd    0.71950   0.85422   0.87422   0.01267  Uiso   1.00
Cd5    Cd    0.54427   0.32964   0.95676   0.01267  Uiso   1.00
Cd6    Cd    0.94165   0.33369   0.45136   0.01267  Uiso   1.00
Cd7    Cd    0.03707   0.17781   0.53219   0.01267  Uiso   1.00
Cd8    Cd    0.45758   0.17139   0.04540   0.01267  Uiso   1.00
Cd9    Cd    0.28050   0.14578   0.12578   0.01267  Uiso   1.00
Cd10   Cd    0.45573   0.67036   0.04324   0.01267  Uiso   1.00
H1     H     0.88810   0.58210   0.70050   0.01267  Uiso   1.00
H2     H     0.80110   0.55000   0.78260   0.01267  Uiso   1.00
H3     H     0.69230   0.74790   0.69770   0.01267  Uiso   1.00
H4     H     0.77610   0.77490   0.61260   0.01267  Uiso   1.00
H5     H     0.67890   0.72460   0.81580   0.01267  Uiso   1.00
H6     H     0.55390   0.57940   0.94600   0.01267  Uiso   1.00
H7     H     0.67760   0.52240   0.81470   0.01267  Uiso   1.00
H8     H     0.05040   0.91530   0.55640   0.01267  Uiso   1.00
H9     H     0.17760   0.97220   0.67320   0.01267  Uiso   1.00
H10    H     0.17590   0.76250   0.69600   0.01267  Uiso   1.00
H11    H     0.19260   0.75380   0.80940   0.01267  Uiso   1.00
H12    H     0.27750   0.72380   0.89530   0.01267  Uiso   1.00
H13    H     0.38260   0.89970   0.79170   0.01267  Uiso   1.00
H14    H     0.30140   0.92740   0.70580   0.01267  Uiso   1.00
H15    H     0.06210   0.41660   0.55280   0.01267  Uiso   1.00
H16    H     0.13140   0.23820   0.70820   0.01267  Uiso   1.00
H17    H     0.15780   0.43610   0.70700   0.01267  Uiso   1.00
H18    H     0.12170   0.21900   0.82590   0.01267  Uiso   1.00
H19    H     0.18140   0.17000   0.92720   0.01267  Uiso   1.00
H20    H     0.33020   0.31560   0.85890   0.01267  Uiso   1.00
H21    H     0.27220   0.36180   0.75850   0.01267  Uiso   1.00
H22    H     0.25600   0.71220   0.40410   0.01267  Uiso   1.00
H23    H     0.33480   0.74810   0.31570   0.01267  Uiso   1.00
H24    H     0.20040   0.92630   0.22670   0.01267  Uiso   1.00
H25    H     0.11980   0.88750   0.31370   0.01267  Uiso   1.00
H26    H     0.33830   0.76890   0.19160   0.01267  Uiso   1.00
H27    H     0.45570   0.92340   0.06230   0.01267  Uiso   1.00
H28    H     0.32700   0.96920   0.19640   0.01267  Uiso   1.00
H29    H     0.11190   0.41790   0.29950   0.01267  Uiso   1.00
H30    H     0.19890   0.45000   0.21740   0.01267  Uiso   1.00
H31    H     0.30770   0.25210   0.30230   0.01267  Uiso   1.00
H32    H     0.22390   0.22510   0.38740   0.01267  Uiso   1.00
H33    H     0.32110   0.27540   0.18420   0.01267  Uiso   1.00
H34    H     0.44610   0.42060   0.05400   0.01267  Uiso   1.00
H35    H     0.32240   0.47760   0.18530   0.01267  Uiso   1.00
H36    H     0.94960   0.08470   0.44360   0.01267  Uiso   1.00
H37    H     0.82240   0.02780   0.32680   0.01267  Uiso   1.00
H38    H     0.82410   0.23750   0.30400   0.01267  Uiso   1.00
H39    H     0.80740   0.24620   0.19060   0.01267  Uiso   1.00
H40    H     0.72250   0.27620   0.10470   0.01267  Uiso   1.00
H41    H     0.61740   0.10030   0.20830   0.01267  Uiso   1.00
H42    H     0.69860   0.07260   0.29420   0.01267  Uiso   1.00
H43    H     0.93790   0.58340   0.44720   0.01267  Uiso   1.00
H44    H     0.86860   0.76180   0.29180   0.01267  Uiso   1.00
H45    H     0.84220   0.56390   0.29300   0.01267  Uiso   1.00
H46    H     0.87830   0.78100   0.17410   0.01267  Uiso   1.00
H47    H     0.81860   0.83000   0.07280   0.01267  Uiso   1.00
H48    H     0.66980   0.68440   0.14110   0.01267  Uiso   1.00
H49    H     0.72780   0.63820   0.24150   0.01267  Uiso   1.00
H50    H     0.74400   0.28780   0.59590   0.01267  Uiso   1.00
H51    H     0.66520   0.25190   0.68430   0.01267  Uiso   1.00
H52    H     0.79960   0.07370   0.77330   0.01267  Uiso   1.00
H53    H     0.88020   0.11250   0.68630   0.01267  Uiso   1.00
H54    H     0.66170   0.23110   0.80840   0.01267  Uiso   1.00
H55    H     0.54430   0.07660   0.93770   0.01267  Uiso   1.00
H56    H     0.67300   0.03080   0.80360   0.01267  Uiso   1.00
C1     C     0.90090   0.70310   0.59760   0.01267  Uiso   1.00
C2     C     0.84230   0.68340   0.64900   0.01267  Uiso   1.00
C3     C     0.84840   0.61550   0.69990   0.01267  Uiso   1.00
C4     C     0.79710   0.59660   0.74940   0.01267  Uiso   1.00
C5     C     0.73910   0.64630   0.75080   0.01267  Uiso   1.00
C6     C     0.73160   0.71400   0.69860   0.01267  Uiso   1.00
C7     C     0.78250   0.73030   0.64840   0.01267  Uiso   1.00
C8     C     0.68650   0.62770   0.80590   0.01267  Uiso   1.00
C9     C     0.66250   0.67770   0.83340   0.01267  Uiso   1.00
C10    C     0.61450   0.66010   0.88680   0.01267  Uiso   1.00
C11    C     0.58800   0.59120   0.91140   0.01267  Uiso   1.00
C12    C     0.61200   0.54050   0.88480   0.01267  Uiso   1.00
C13    C     0.66130   0.55740   0.83230   0.01267  Uiso   1.00
C14    C     0.58670   0.46500   0.91220   0.01267  Uiso   1.00
C15    C     0.08720   0.77330   0.59870   0.01267  Uiso   1.00
C16    C     0.11020   0.83030   0.62260   0.01267  Uiso   1.00
C17    C     0.08480   0.90240   0.59080   0.01267  Uiso   1.00
C18    C     0.10970   0.95500   0.60920   0.01267  Uiso   1.00
C19    C     0.16040   0.93600   0.66080   0.01267  Uiso   1.00
C20    C     0.18550   0.86370   0.69380   0.01267  Uiso   1.00
C21    C     0.15950   0.81160   0.67400   0.01267  Uiso   1.00
C22    C     0.23860   0.84340   0.74920   0.01267  Uiso   1.00
C23    C     0.23140   0.78310   0.80540   0.01267  Uiso   1.00
C24    C     0.28210   0.76540   0.85690   0.01267  Uiso   1.00
C25    C     0.33890   0.80890   0.85140   0.01267  Uiso   1.00
C26    C     0.34480   0.86950   0.79530   0.01267  Uiso   1.00
C27    C     0.29590   0.88630   0.74440   0.01267  Uiso   1.00
C28    C     0.39270   0.78870   0.90700   0.01267  Uiso   1.00
C29    C     0.09190   0.51950   0.59460   0.01267  Uiso   1.00
C30    C     0.10820   0.43760   0.62500   0.01267  Uiso   1.00
C31    C     0.08500   0.39520   0.59430   0.01267  Uiso   1.00
C32    C     0.09530   0.32020   0.62450   0.01267  Uiso   1.00
C33    C     0.06940   0.27480   0.59040   0.01267  Uiso   1.00
C34    C     0.12730   0.28890   0.68670   0.01267  Uiso   1.00
C35    C     0.15310   0.33120   0.71710   0.01267  Uiso   1.00
C36    C     0.14210   0.40630   0.68620   0.01267  Uiso   1.00
C37    C     0.19090   0.29680   0.78230   0.01267  Uiso   1.00
C38    C     0.16420   0.23870   0.83250   0.01267  Uiso   1.00
C39    C     0.20030   0.20930   0.89300   0.01267  Uiso   1.00
C40    C     0.26340   0.23660   0.90380   0.01267  Uiso   1.00
C41    C     0.28830   0.29480   0.85280   0.01267  Uiso   1.00
C42    C     0.25280   0.32310   0.79290   0.01267  Uiso   1.00
C43    C     0.30170   0.20530   0.96890   0.01267  Uiso   1.00
C44    C     0.12270   0.77130   0.42060   0.01267  Uiso   1.00
C45    C     0.17840   0.79520   0.36610   0.01267  Uiso   1.00
C46    C     0.24390   0.75480   0.36740   0.01267  Uiso   1.00
C47    C     0.29110   0.77670   0.31520   0.01267  Uiso   1.00
C48    C     0.27510   0.84120   0.26110   0.01267  Uiso   1.00
C49    C     0.21150   0.88200   0.26200   0.01267  Uiso   1.00
C50    C     0.16340   0.85890   0.31410   0.01267  Uiso   1.00
C51    C     0.32590   0.86440   0.20370   0.01267  Uiso   1.00
C52    C     0.35250   0.81670   0.17470   0.01267  Uiso   1.00
C53    C     0.40020   0.83770   0.12050   0.01267  Uiso   1.00
C54    C     0.42220   0.90850   0.09730   0.01267  Uiso   1.00
C55    C     0.39470   0.95630   0.12580   0.01267  Uiso   1.00
C56    C     0.34610   0.93560   0.17820   0.01267  Uiso   1.00
C57    C     0.41920   0.03290   0.10100   0.01267  Uiso   1.00
C58    C     0.42620   0.78680   0.08870   0.01267  Uiso   1.00
C59    C     0.59270   0.71520   0.91590   0.01267  Uiso   1.00
C60    C     0.08140   0.03360   0.57720   0.01267  Uiso   1.00
C61    C     0.09910   0.29690   0.40240   0.01267  Uiso   1.00
C62    C     0.15770   0.31660   0.35100   0.01267  Uiso   1.00
C63    C     0.15160   0.38450   0.30010   0.01267  Uiso   1.00
C64    C     0.20290   0.40340   0.25060   0.01267  Uiso   1.00
C65    C     0.26090   0.35370   0.24920   0.01267  Uiso   1.00
C66    C     0.26840   0.28600   0.30140   0.01267  Uiso   1.00
C67    C     0.21750   0.26970   0.35160   0.01267  Uiso   1.00
C68    C     0.31350   0.37230   0.19410   0.01267  Uiso   1.00
C69    C     0.33750   0.32230   0.16660   0.01267  Uiso   1.00
C70    C     0.38550   0.33990   0.11320   0.01267  Uiso   1.00
C71    C     0.41200   0.40880   0.08860   0.01267  Uiso   1.00
C72    C     0.38800   0.45950   0.11520   0.01267  Uiso   1.00
C73    C     0.33870   0.44260   0.16770   0.01267  Uiso   1.00
C74    C     0.41330   0.53500   0.08780   0.01267  Uiso   1.00
C75    C     0.91280   0.22670   0.40130   0.01267  Uiso   1.00
C76    C     0.88980   0.16970   0.37740   0.01267  Uiso   1.00
C77    C     0.91520   0.09760   0.40920   0.01267  Uiso   1.00
C78    C     0.89030   0.04500   0.39080   0.01267  Uiso   1.00
C79    C     0.83960   0.06400   0.33920   0.01267  Uiso   1.00
C80    C     0.81450   0.13630   0.30620   0.01267  Uiso   1.00
C81    C     0.84050   0.18840   0.32600   0.01267  Uiso   1.00
C82    C     0.76140   0.15660   0.25080   0.01267  Uiso   1.00
C83    C     0.76860   0.21690   0.19460   0.01267  Uiso   1.00
C84    C     0.71790   0.23460   0.14310   0.01267  Uiso   1.00
C85    C     0.66110   0.19110   0.14860   0.01267  Uiso   1.00
C86    C     0.65520   0.13050   0.20470   0.01267  Uiso   1.00
C87    C     0.70410   0.11370   0.25560   0.01267  Uiso   1.00
C88    C     0.60730   0.21130   0.09300   0.01267  Uiso   1.00
C89    C     0.90810   0.48050   0.40540   0.01267  Uiso   1.00
C90    C     0.89180   0.56240   0.37500   0.01267  Uiso   1.00
C91    C     0.91500   0.60480   0.40570   0.01267  Uiso   1.00
C92    C     0.90470   0.67980   0.37550   0.01267  Uiso   1.00
C93    C     0.93060   0.72520   0.40960   0.01267  Uiso   1.00
C94    C     0.87270   0.71110   0.31330   0.01267  Uiso   1.00
C95    C     0.84690   0.66880   0.28290   0.01267  Uiso   1.00
C96    C     0.85790   0.59370   0.31380   0.01267  Uiso   1.00
C97    C     0.80910   0.70320   0.21770   0.01267  Uiso   1.00
C98    C     0.83580   0.76130   0.16750   0.01267  Uiso   1.00
C99    C     0.79970   0.79070   0.10700   0.01267  Uiso   1.00
C100   C     0.73660   0.76340   0.09620   0.01267  Uiso   1.00
C101   C     0.71170   0.70520   0.14720   0.01267  Uiso   1.00
C102   C     0.74720   0.67690   0.20710   0.01267  Uiso   1.00
C103   C     0.69830   0.79470   0.03110   0.01267  Uiso   1.00
C104   C     0.87730   0.22870   0.57940   0.01267  Uiso   1.00
C105   C     0.82160   0.20480   0.63390   0.01267  Uiso   1.00
C106   C     0.75610   0.24520   0.63260   0.01267  Uiso   1.00
C107   C     0.70890   0.22330   0.68480   0.01267  Uiso   1.00
C108   C     0.72490   0.15880   0.73890   0.01267  Uiso   1.00
C109   C     0.78850   0.11800   0.73800   0.01267  Uiso   1.00
C110   C     0.83660   0.14110   0.68590   0.01267  Uiso   1.00
C111   C     0.67410   0.13560   0.79630   0.01267  Uiso   1.00
C112   C     0.64750   0.18330   0.82530   0.01267  Uiso   1.00
C113   C     0.59980   0.16230   0.87950   0.01267  Uiso   1.00
C114   C     0.57780   0.09150   0.90270   0.01267  Uiso   1.00
C115   C     0.60530   0.04370   0.87420   0.01267  Uiso   1.00
C116   C     0.65390   0.06440   0.82180   0.01267  Uiso   1.00
C117   C     0.58080   0.96710   0.89900   0.01267  Uiso   1.00
C118   C     0.57380   0.21320   0.91130   0.01267  Uiso   1.00
C119   C     0.40730   0.28480   0.08410   0.01267  Uiso   1.00
C120   C     0.91860   0.96640   0.42280   0.01267  Uiso   1.00
Cl1    Cl    0.73298   0.89048   0.75476   0.01267  Uiso   1.00
Cl2    Cl    0.26702   0.10952   0.24524   0.01267  Uiso   1.00
O1     O     0.89030   0.76590   0.55110   0.01267  Uiso   1.00
O2     O     0.95410   0.65790   0.60390   0.01267  Uiso   1.00
O3     O     0.62330   0.41720   0.89700   0.01267  Uiso   1.00
O4     O     0.53290   0.45180   0.94700   0.01267  Uiso   1.00
O5     O     0.54950   0.69840   0.96420   0.01267  Uiso   1.00
O6     O     0.61660   0.77590   0.89160   0.01267  Uiso   1.00
O7     O     0.12300   0.55890   0.61840   0.01267  Uiso   1.00
O8     O     0.04990   0.54530   0.54830   0.01267  Uiso   1.00
O9     O     0.03290   0.30400   0.53890   0.01267  Uiso   1.00
O10    O     0.08770   0.20690   0.61340   0.01267  Uiso   1.00
O11    O     0.27050   0.16980   0.01800   0.01267  Uiso   1.00
O12    O     0.36960   0.22040   0.96630   0.01267  Uiso   1.00
O13    O     0.11370   0.71060   0.62170   0.01267  Uiso   1.00
O14    O     0.04170   0.79410   0.55400   0.01267  Uiso   1.00
O15    O     0.01780   0.04910   0.55620   0.01267  Uiso   1.00
O16    O     0.12420   0.08170   0.57070   0.01267  Uiso   1.00
O17    O     0.39130   0.72680   0.95130   0.01267  Uiso   1.00
O18    O     0.43630   0.83690   0.90500   0.01267  Uiso   1.00
O19    O     0.13310   0.70760   0.46350   0.01267  Uiso   1.00
O20    O     0.07130   0.81730   0.41800   0.01267  Uiso   1.00
O21    O     0.38850   0.07680   0.12470   0.01267  Uiso   1.00
O22    O     0.46720   0.04980   0.05800   0.01267  Uiso   1.00
O23    O     0.48070   0.80150   0.05150   0.01267  Uiso   1.00
O24    O     0.39320   0.73140   0.10010   0.01267  Uiso   1.00
O25    O     0.80510   0.93560   0.87310   0.01267  Uiso   1.00
O26    O     0.80400   0.75330   0.89550   0.01267  Uiso   1.00
O27    O     0.44280   0.35220   0.89310   0.01267  Uiso   1.00
O28    O     0.10970   0.23410   0.44890   0.01267  Uiso   1.00
O29    O     0.04590   0.34210   0.39610   0.01267  Uiso   1.00
O30    O     0.37670   0.58280   0.10300   0.01267  Uiso   1.00
O31    O     0.46710   0.54820   0.05300   0.01267  Uiso   1.00
O32    O     0.45050   0.30160   0.03580   0.01267  Uiso   1.00
O33    O     0.38340   0.22410   0.10840   0.01267  Uiso   1.00
O34    O     0.87700   0.44110   0.38160   0.01267  Uiso   1.00
O35    O     0.95010   0.45470   0.45170   0.01267  Uiso   1.00
O36    O     0.96710   0.69600   0.46110   0.01267  Uiso   1.00
O37    O     0.91230   0.79310   0.38660   0.01267  Uiso   1.00
O38    O     0.72950   0.83020   0.98200   0.01267  Uiso   1.00
O39    O     0.63040   0.77960   0.03370   0.01267  Uiso   1.00
O40    O     0.88630   0.28940   0.37830   0.01267  Uiso   1.00
O41    O     0.95830   0.20590   0.44600   0.01267  Uiso   1.00
O42    O     0.98220   0.95090   0.44380   0.01267  Uiso   1.00
O43    O     0.87580   0.91830   0.42930   0.01267  Uiso   1.00
O44    O     0.60870   0.27320   0.04870   0.01267  Uiso   1.00
O45    O     0.56370   0.16310   0.09500   0.01267  Uiso   1.00
O46    O     0.86690   0.29240   0.53650   0.01267  Uiso   1.00
O47    O     0.92870   0.18270   0.58200   0.01267  Uiso   1.00
O48    O     0.61150   0.92320   0.87530   0.01267  Uiso   1.00
O49    O     0.53280   0.95020   0.94200   0.01267  Uiso   1.00
O50    O     0.51930   0.19850   0.94850   0.01267  Uiso   1.00
O51    O     0.60680   0.26860   0.89990   0.01267  Uiso   1.00
O52    O     0.19490   0.06440   0.12690   0.01267  Uiso   1.00
O53    O     0.19600   0.24670   0.10450   0.01267  Uiso   1.00
O54    O     0.55720   0.64780   0.10690   0.01267  Uiso   1.00
Cd11   Cd    0.47606   0.71187   0.48036   0.01267  Uiso   1.00
H57    H     0.06900   0.06460   0.41920   0.01267  Uiso   1.00
H58    H     0.12390   0.12280   0.41670   0.01267  Uiso   1.00
H59    H     0.11160   0.10490   0.35330   0.01267  Uiso   1.00
H60    H     0.25260   0.09360   0.41120   0.01267  Uiso   1.00
H61    H     0.34970   0.00900   0.43820   0.01267  Uiso   1.00
H62    H     0.20850   0.85480   0.46730   0.01267  Uiso   1.00
H63    H     0.11340   0.94600   0.43670   0.01267  Uiso   1.00
H64    H     0.27990   0.84740   0.58360   0.01267  Uiso   1.00
H65    H     0.33430   0.74850   0.68180   0.01267  Uiso   1.00
H66    H     0.45080   0.72310   0.74780   0.01267  Uiso   1.00
H67    H     0.42370   0.67240   0.85620   0.01267  Uiso   1.00
H68    H     0.37750   0.49480   0.94190   0.01267  Uiso   1.00
H69    H     0.41530   0.55700   0.95450   0.01267  Uiso   1.00
H70    H     0.33190   0.56910   0.93290   0.01267  Uiso   1.00
H71    H     0.39750   0.48470   0.84280   0.01267  Uiso   1.00
H72    H     0.42600   0.53080   0.73230   0.01267  Uiso   1.00
H73    H     0.56860   0.55800   0.72370   0.01267  Uiso   1.00
H74    H     0.67000   0.53890   0.65640   0.01267  Uiso   1.00
H75    H     0.68240   0.48190   0.52740   0.01267  Uiso   1.00
H76    H     0.78440   0.40620   0.56440   0.01267  Uiso   1.00
H77    H     0.89180   0.56470   0.57130   0.01267  Uiso   1.00
H78    H     0.79120   0.64530   0.53650   0.01267  Uiso   1.00
H79    H     0.73970   0.65140   0.40090   0.01267  Uiso   1.00
H80    H     0.68620   0.75030   0.30370   0.01267  Uiso   1.00
H81    H     0.56570   0.77550   0.22560   0.01267  Uiso   1.00
H82    H     0.59640   0.83780   0.11870   0.01267  Uiso   1.00
H83    H     0.62670   0.02100   0.04660   0.01267  Uiso   1.00
H84    H     0.68250   0.95400   0.05140   0.01267  Uiso   1.00
H85    H     0.60020   0.95610   0.03010   0.01267  Uiso   1.00
H86    H     0.62070   0.01470   0.15410   0.01267  Uiso   1.00
H87    H     0.59000   0.95630   0.26430   0.01267  Uiso   1.00
H88    H     0.45330   0.94630   0.26280   0.01267  Uiso   1.00
H89    H     0.35170   0.96630   0.33010   0.01267  Uiso   1.00
C121   C     0.11480   0.08480   0.40100   0.01267  Uiso   1.00
C122   C     0.24420   0.04450   0.42210   0.01267  Uiso   1.00
C123   C     0.30220   0.99510   0.43710   0.01267  Uiso   1.00
C124   C     0.29030   0.92210   0.45120   0.01267  Uiso   1.00
C125   C     0.21850   0.90370   0.45410   0.01267  Uiso   1.00
C126   C     0.16180   0.95810   0.43730   0.01267  Uiso   1.00
C127   C     0.35330   0.86450   0.46340   0.01267  Uiso   1.00
C128   C     0.36240   0.81400   0.52820   0.01267  Uiso   1.00
C129   C     0.32030   0.81490   0.58410   0.01267  Uiso   1.00
C130   C     0.34980   0.76010   0.63800   0.01267  Uiso   1.00
C131   C     0.40840   0.72360   0.61560   0.01267  Uiso   1.00
C132   C     0.45620   0.66420   0.65560   0.01267  Uiso   1.00
C133   C     0.43890   0.63350   0.72610   0.01267  Uiso   1.00
C134   C     0.43880   0.67460   0.76600   0.01267  Uiso   1.00
C135   C     0.42160   0.64460   0.82990   0.01267  Uiso   1.00
C136   C     0.37970   0.54690   0.92780   0.01267  Uiso   1.00
C137   C     0.40650   0.53390   0.82220   0.01267  Uiso   1.00
C138   C     0.42400   0.56100   0.75660   0.01267  Uiso   1.00
C139   C     0.51870   0.63130   0.63420   0.01267  Uiso   1.00
C140   C     0.57210   0.58000   0.67760   0.01267  Uiso   1.00
C141   C     0.62700   0.56930   0.64110   0.01267  Uiso   1.00
C142   C     0.60850   0.61350   0.57200   0.01267  Uiso   1.00
C143   C     0.65380   0.62020   0.51820   0.01267  Uiso   1.00
C144   C     0.72230   0.57100   0.53310   0.01267  Uiso   1.00
C145   C     0.72400   0.49940   0.53840   0.01267  Uiso   1.00
C146   C     0.78530   0.45510   0.55930   0.01267  Uiso   1.00
C147   C     0.91080   0.42520   0.60050   0.01267  Uiso   1.00
C148   C     0.84780   0.54810   0.56360   0.01267  Uiso   1.00
C149   C     0.78830   0.59610   0.54340   0.01267  Uiso   1.00
C150   C     0.64290   0.66900   0.45200   0.01267  Uiso   1.00
C151   C     0.69450   0.67830   0.39890   0.01267  Uiso   1.00
C152   C     0.66550   0.73280   0.34600   0.01267  Uiso   1.00
C153   C     0.59690   0.76000   0.36570   0.01267  Uiso   1.00
C154   C     0.55120   0.82150   0.32790   0.01267  Uiso   1.00
C155   C     0.57380   0.85820   0.25810   0.01267  Uiso   1.00
C156   C     0.57670   0.82420   0.21220   0.01267  Uiso   1.00
C157   C     0.59500   0.86110   0.14900   0.01267  Uiso   1.00
C158   C     0.63200   0.96890   0.05800   0.01267  Uiso   1.00
C159   C     0.60950   0.96600   0.16950   0.01267  Uiso   1.00
C160   C     0.59100   0.93140   0.23530   0.01267  Uiso   1.00
C161   C     0.48900   0.85220   0.34680   0.01267  Uiso   1.00
C162   C     0.44450   0.91720   0.30700   0.01267  Uiso   1.00
C163   C     0.38920   0.92860   0.34390   0.01267  Uiso   1.00
C164   C     0.39770   0.87210   0.40910   0.01267  Uiso   1.00
N1     N     0.58480   0.71980   0.43030   0.01267  Uiso   1.00
N2     N     0.54220   0.64940   0.57160   0.01267  Uiso   1.00
N3     N     0.41450   0.75700   0.54800   0.01267  Uiso   1.00
N4     N     0.45790   0.82720   0.40870   0.01267  Uiso   1.00
N5     N     0.84660   0.47660   0.57310   0.01267  Uiso   1.00
N6     N     0.40180   0.57690   0.85790   0.01267  Uiso   1.00
N7     N     0.17500   0.02730   0.42200   0.01267  Uiso   1.00
N8     N     0.61160   0.93160   0.12810   0.01267  Uiso   1.00
Cl3    Cl    0.40903   0.63062   0.44324   0.01267  Uiso   1.00
Cd12   Cd    0.52394   0.28813   0.51964   0.01267  Uiso   1.00
H90    H     0.93100   0.93540   0.58080   0.01267  Uiso   1.00
H91    H     0.87610   0.87720   0.58330   0.01267  Uiso   1.00
H92    H     0.88840   0.89510   0.64670   0.01267  Uiso   1.00
H93    H     0.74740   0.90640   0.58880   0.01267  Uiso   1.00
H94    H     0.65030   0.99100   0.56180   0.01267  Uiso   1.00
H95    H     0.79150   0.14520   0.53270   0.01267  Uiso   1.00
H96    H     0.88660   0.05400   0.56330   0.01267  Uiso   1.00
H97    H     0.72010   0.15260   0.41640   0.01267  Uiso   1.00
H98    H     0.66570   0.25150   0.31820   0.01267  Uiso   1.00
H99    H     0.54920   0.27690   0.25220   0.01267  Uiso   1.00
H100   H     0.57630   0.32760   0.14380   0.01267  Uiso   1.00
H101   H     0.62250   0.50520   0.05810   0.01267  Uiso   1.00
H102   H     0.58470   0.44300   0.04550   0.01267  Uiso   1.00
H103   H     0.66810   0.43090   0.06710   0.01267  Uiso   1.00
H104   H     0.60250   0.51530   0.15720   0.01267  Uiso   1.00
H105   H     0.57400   0.46920   0.26770   0.01267  Uiso   1.00
H106   H     0.43140   0.44200   0.27630   0.01267  Uiso   1.00
H107   H     0.33000   0.46110   0.34360   0.01267  Uiso   1.00
H108   H     0.31760   0.51810   0.47260   0.01267  Uiso   1.00
H109   H     0.21560   0.59380   0.43560   0.01267  Uiso   1.00
H110   H     0.10820   0.43530   0.42870   0.01267  Uiso   1.00
H111   H     0.20880   0.35470   0.46350   0.01267  Uiso   1.00
H112   H     0.26030   0.34860   0.59910   0.01267  Uiso   1.00
H113   H     0.31380   0.24970   0.69630   0.01267  Uiso   1.00
H114   H     0.43430   0.22450   0.77440   0.01267  Uiso   1.00
H115   H     0.40360   0.16220   0.88130   0.01267  Uiso   1.00
H116   H     0.37330   0.97900   0.95340   0.01267  Uiso   1.00
H117   H     0.31750   0.04600   0.94860   0.01267  Uiso   1.00
H118   H     0.39980   0.04390   0.96990   0.01267  Uiso   1.00
H119   H     0.37930   0.98530   0.84590   0.01267  Uiso   1.00
H120   H     0.41000   0.04370   0.73570   0.01267  Uiso   1.00
H121   H     0.54670   0.05370   0.73720   0.01267  Uiso   1.00
H122   H     0.64830   0.03370   0.66990   0.01267  Uiso   1.00
C165   C     0.88520   0.91520   0.59900   0.01267  Uiso   1.00
C166   C     0.75580   0.95550   0.57790   0.01267  Uiso   1.00
C167   C     0.69780   0.00490   0.56290   0.01267  Uiso   1.00
C168   C     0.70970   0.07790   0.54880   0.01267  Uiso   1.00
C169   C     0.78150   0.09630   0.54590   0.01267  Uiso   1.00
C170   C     0.83820   0.04190   0.56270   0.01267  Uiso   1.00
C171   C     0.64670   0.13550   0.53660   0.01267  Uiso   1.00
C172   C     0.63760   0.18600   0.47180   0.01267  Uiso   1.00
C173   C     0.67970   0.18510   0.41590   0.01267  Uiso   1.00
C174   C     0.65020   0.23990   0.36200   0.01267  Uiso   1.00
C175   C     0.59160   0.27640   0.38440   0.01267  Uiso   1.00
C176   C     0.54380   0.33580   0.34440   0.01267  Uiso   1.00
C177   C     0.56110   0.36650   0.27390   0.01267  Uiso   1.00
C178   C     0.56120   0.32540   0.23400   0.01267  Uiso   1.00
C179   C     0.57840   0.35540   0.17010   0.01267  Uiso   1.00
C180   C     0.62030   0.45310   0.07220   0.01267  Uiso   1.00
C181   C     0.59350   0.46610   0.17780   0.01267  Uiso   1.00
C182   C     0.57600   0.43900   0.24340   0.01267  Uiso   1.00
C183   C     0.48130   0.36870   0.36580   0.01267  Uiso   1.00
C184   C     0.42790   0.42000   0.32240   0.01267  Uiso   1.00
C185   C     0.37300   0.43070   0.35890   0.01267  Uiso   1.00
C186   C     0.39150   0.38650   0.42800   0.01267  Uiso   1.00
C187   C     0.34620   0.37980   0.48180   0.01267  Uiso   1.00
C188   C     0.27770   0.42900   0.46690   0.01267  Uiso   1.00
C189   C     0.27600   0.50060   0.46160   0.01267  Uiso   1.00
C190   C     0.21470   0.54490   0.44070   0.01267  Uiso   1.00
C191   C     0.08920   0.57480   0.39950   0.01267  Uiso   1.00
C192   C     0.15220   0.45190   0.43640   0.01267  Uiso   1.00
C193   C     0.21170   0.40390   0.45660   0.01267  Uiso   1.00
C194   C     0.35710   0.33100   0.54800   0.01267  Uiso   1.00
C195   C     0.30550   0.32170   0.60110   0.01267  Uiso   1.00
C196   C     0.33450   0.26720   0.65400   0.01267  Uiso   1.00
C197   C     0.40310   0.24000   0.63430   0.01267  Uiso   1.00
C198   C     0.44880   0.17850   0.67210   0.01267  Uiso   1.00
C199   C     0.42620   0.14180   0.74190   0.01267  Uiso   1.00
C200   C     0.42330   0.17580   0.78780   0.01267  Uiso   1.00
C201   C     0.40500   0.13890   0.85100   0.01267  Uiso   1.00
C202   C     0.36800   0.03110   0.94200   0.01267  Uiso   1.00
C203   C     0.39050   0.03400   0.83050   0.01267  Uiso   1.00
C204   C     0.40900   0.06860   0.76470   0.01267  Uiso   1.00
C205   C     0.51100   0.14780   0.65320   0.01267  Uiso   1.00
C206   C     0.55550   0.08280   0.69300   0.01267  Uiso   1.00
C207   C     0.61080   0.07140   0.65610   0.01267  Uiso   1.00
C208   C     0.60230   0.12790   0.59090   0.01267  Uiso   1.00
N9     N     0.41520   0.28020   0.56970   0.01267  Uiso   1.00
N10    N     0.45780   0.35060   0.42840   0.01267  Uiso   1.00
N11    N     0.58550   0.24300   0.45200   0.01267  Uiso   1.00
N12    N     0.54210   0.17280   0.59130   0.01267  Uiso   1.00
N13    N     0.15340   0.52340   0.42690   0.01267  Uiso   1.00
N14    N     0.59820   0.42310   0.14210   0.01267  Uiso   1.00
N15    N     0.82500   0.97270   0.57800   0.01267  Uiso   1.00
N16    N     0.38840   0.06840   0.87190   0.01267  Uiso   1.00
Cl4    Cl    0.59097   0.36938   0.55676   0.01267  Uiso   1.00
