data_HEFFEF_ion_b
_audit_creation_date              2014-07-02
_audit_creation_method            'Materials Studio'
_symmetry_space_group_name_H-M    'P1'
_symmetry_Int_Tables_number       1
_symmetry_cell_setting            triclinic
loop_
_symmetry_equiv_pos_as_xyz
  x,y,z
_cell_length_a                    10.0060
_cell_length_b                    18.3400
_cell_length_c                    20.2600
_cell_angle_alpha                 88.7200
_cell_angle_beta                  83.4600
_cell_angle_gamma                 86.8600
loop_
_atom_site_label
_atom_site_type_symbol
_atom_site_fract_x
_atom_site_fract_y
_atom_site_fract_z
_atom_site_U_iso_or_equiv
_atom_site_adp_type
_atom_site_occupancy
Cd1    Cd    0.88666   0.54786   0.96064   0.00000  Uiso   1.00
Cd2    Cd    0.38930   0.95980   0.45490   0.00000  Uiso   1.00
Cd3    Cd    0.91568   0.96922   0.01845   0.00000  Uiso   1.00
Cl4    Cl    0.72950   0.88230   0.05250   0.00000  Uiso   1.00
N5     N     0.90020   0.08350   0.06060   0.00000  Uiso   1.00
N6     N     0.90190   0.03620   0.92190   0.00000  Uiso   1.00
N7     N     0.00140   0.10660   0.36740   0.00000  Uiso   1.00
N8     N     0.54000   0.33670   0.92320   0.00000  Uiso   1.00
Na9    Na    0.89290   0.72080   0.87910   0.00000  Uiso   1.00
C10    C     0.96400   0.59710   0.10070   0.00000  Uiso   1.00
C11    C     0.95700   0.65640   0.15340   0.00000  Uiso   1.00
C12    C     0.04320   0.65130   0.20150   0.00000  Uiso   1.00
H13    H     0.10690   0.61240   0.20150   0.00000  Uiso   1.00
C14    C     0.03560   0.70450   0.25070   0.00000  Uiso   1.00
H15    H     0.09220   0.69900   0.28400   0.00000  Uiso   1.00
C16    C     0.94990   0.76240   0.25110   0.00000  Uiso   1.00
C17    C     0.86260   0.76810   0.20110   0.00000  Uiso   1.00
H18    H     0.79790   0.80660   0.20260   0.00000  Uiso   1.00
C19    C     0.86920   0.71840   0.14970   0.00000  Uiso   1.00
H20    H     0.81780   0.72600   0.11450   0.00000  Uiso   1.00
C21    C     0.93460   0.82070   0.30430   0.00000  Uiso   1.00
C22    C     0.81130   0.84920   0.33040   0.00000  Uiso   1.00
H23    H     0.73390   0.83510   0.31380   0.00000  Uiso   1.00
C24    C     0.80030   0.89970   0.38240   0.00000  Uiso   1.00
C25    C     0.91630   0.92410   0.40400   0.00000  Uiso   1.00
H26    H     0.91100   0.95960   0.43630   0.00000  Uiso   1.00
C27    C     0.03930   0.89490   0.37700   0.00000  Uiso   1.00
C28    C     0.05080   0.84020   0.33030   0.00000  Uiso   1.00
H29    H     0.13400   0.81690   0.31670   0.00000  Uiso   1.00
C30    C     0.16870   0.91210   0.40070   0.00000  Uiso   1.00
C31    C     0.66690   0.93050   0.41180   0.00000  Uiso   1.00
C32    C     0.48270   0.89330   0.58520   0.00000  Uiso   1.00
C33    C     0.46300   0.83780   0.64480   0.00000  Uiso   1.00
C34    C     0.38700   0.77620   0.63640   0.00000  Uiso   1.00
H35    H     0.35030   0.76920   0.59700   0.00000  Uiso   1.00
C36    C     0.36840   0.72380   0.69250   0.00000  Uiso   1.00
H37    H     0.31590   0.68360   0.69170   0.00000  Uiso   1.00
C38    C     0.43270   0.73850   0.74490   0.00000  Uiso   1.00
C39    C     0.50280   0.79710   0.75230   0.00000  Uiso   1.00
H40    H     0.53540   0.80450   0.79270   0.00000  Uiso   1.00
C41    C     0.52950   0.85050   0.69710   0.00000  Uiso   1.00
H42    H     0.58630   0.88890   0.69850   0.00000  Uiso   1.00
C43    C     0.41990   0.68120   0.80010   0.00000  Uiso   1.00
C44    C     0.29310   0.65400   0.82270   0.00000  Uiso   1.00
H45    H     0.21880   0.66460   0.79980   0.00000  Uiso   1.00
C46    C     0.28200   0.60900   0.88290   0.00000  Uiso   1.00
C47    C     0.39390   0.58720   0.91020   0.00000  Uiso   1.00
H48    H     0.38710   0.55410   0.94580   0.00000  Uiso   1.00
C49    C     0.52030   0.61250   0.88710   0.00000  Uiso   1.00
C50    C     0.52960   0.66010   0.83090   0.00000  Uiso   1.00
H51    H     0.61300   0.67720   0.81460   0.00000  Uiso   1.00
C52    C     0.65000   0.58360   0.91650   0.00000  Uiso   1.00
C53    C     0.14800   0.58440   0.91300   0.00000  Uiso   1.00
C54    C     0.46650   0.40010   0.89760   0.00000  Uiso   1.00
H55    H     0.42830   0.38690   0.85850   0.00000  Uiso   1.00
H56    H     0.52710   0.43850   0.88670   0.00000  Uiso   1.00
H57    H     0.39580   0.41670   0.93080   0.00000  Uiso   1.00
C58    C     0.66180   0.34270   0.93350   0.00000  Uiso   1.00
H59    H     0.69610   0.38890   0.92870   0.00000  Uiso   1.00
C60    C     0.75270   0.28200   0.95240   0.00000  Uiso   1.00
H61    H     0.83840   0.29010   0.96340   0.00000  Uiso   1.00
C62    C     0.70750   0.21520   0.95330   0.00000  Uiso   1.00
C63    C     0.55680   0.21190   0.95170   0.00000  Uiso   1.00
H64    H     0.50980   0.17100   0.96580   0.00000  Uiso   1.00
C65    C     0.49700   0.27250   0.92840   0.00000  Uiso   1.00
H66    H     0.41310   0.26710   0.91410   0.00000  Uiso   1.00
C67    C     0.78660   0.14640   0.97260   0.00000  Uiso   1.00
C68    C     0.81940   0.13660   0.03940   0.00000  Uiso   1.00
C69    C     0.77350   0.18860   0.09190   0.00000  Uiso   1.00
H70    H     0.71960   0.23130   0.08920   0.00000  Uiso   1.00
C71    C     0.82930   0.15940   0.14640   0.00000  Uiso   1.00
H72    H     0.81550   0.17810   0.18900   0.00000  Uiso   1.00
C73    C     0.91230   0.09550   0.12660   0.00000  Uiso   1.00
C74    C     0.82420   0.10370   0.91610   0.00000  Uiso   1.00
C75    C     0.79460   0.11680   0.84890   0.00000  Uiso   1.00
H76    H     0.74300   0.15620   0.83390   0.00000  Uiso   1.00
C77    C     0.85480   0.06220   0.81170   0.00000  Uiso   1.00
H78    H     0.85250   0.05740   0.76630   0.00000  Uiso   1.00
C79    C     0.92440   0.01170   0.85420   0.00000  Uiso   1.00
C80    C     0.99360   0.04930   0.16480   0.00000  Uiso   1.00
C81    C     0.99420   0.07030   0.23730   0.00000  Uiso   1.00
C82    C     0.87940   0.07780   0.28050   0.00000  Uiso   1.00
H83    H     0.79630   0.07090   0.26580   0.00000  Uiso   1.00
C84    C     0.88620   0.09580   0.34600   0.00000  Uiso   1.00
H85    H     0.80750   0.10020   0.37520   0.00000  Uiso   1.00
C86    C     0.12210   0.08150   0.26130   0.00000  Uiso   1.00
H87    H     0.20340   0.07420   0.23450   0.00000  Uiso   1.00
C88    C     0.11640   0.10350   0.32510   0.00000  Uiso   1.00
H89    H     0.19530   0.11710   0.34050   0.00000  Uiso   1.00
C90    C     0.01100   0.12850   0.43760   0.00000  Uiso   1.00
H91    H     0.93070   0.15670   0.45390   0.00000  Uiso   1.00
H92    H     0.02010   0.08560   0.46500   0.00000  Uiso   1.00
H93    H     0.08780   0.15730   0.43880   0.00000  Uiso   1.00
O94    O     0.65090   0.53370   0.94810   0.00000  Uiso   1.00
O95    O     0.74350   0.62950   0.91260   0.00000  Uiso   1.00
O96    O     0.13880   0.54800   0.96410   0.00000  Uiso   1.00
O97    O     0.04200   0.60820   0.88770   0.00000  Uiso   1.00
O98    O     0.40520   0.88820   0.54110   0.00000  Uiso   1.00
O99    O     0.57820   0.93090   0.59280   0.00000  Uiso   1.00
O100   O     0.16920   0.96500   0.44150   0.00000  Uiso   1.00
O101   O     0.27920   0.88940   0.38150   0.00000  Uiso   1.00
O102   O     0.67500   0.96650   0.45790   0.00000  Uiso   1.00
O103   O     0.56760   0.90870   0.39560   0.00000  Uiso   1.00
O104   O     0.88780   0.61190   0.05360   0.00000  Uiso   1.00
O105   O     0.05410   0.54910   0.10300   0.00000  Uiso   1.00
Cd109  Cd    0.11334   0.45214   0.03936   0.00000  Uiso   1.00
Cd110  Cd    0.61070   0.04020   0.54510   0.00000  Uiso   1.00
Cd111  Cd    0.08432   0.03078   0.98155   0.00000  Uiso   1.00
Cl112  Cl    0.27050   0.11770   0.94750   0.00000  Uiso   1.00
N113   N     0.09980   0.91650   0.93940   0.00000  Uiso   1.00
N114   N     0.09810   0.96380   0.07810   0.00000  Uiso   1.00
N115   N     0.99860   0.89340   0.63260   0.00000  Uiso   1.00
N116   N     0.46000   0.66330   0.07680   0.00000  Uiso   1.00
Na117  Na    0.10710   0.27920   0.12090   0.00000  Uiso   1.00
C118   C     0.03600   0.40290   0.89930   0.00000  Uiso   1.00
C119   C     0.04300   0.34360   0.84660   0.00000  Uiso   1.00
C120   C     0.95680   0.34870   0.79850   0.00000  Uiso   1.00
H121   H     0.89310   0.38760   0.79850   0.00000  Uiso   1.00
C122   C     0.96440   0.29550   0.74930   0.00000  Uiso   1.00
H123   H     0.90780   0.30100   0.71600   0.00000  Uiso   1.00
C124   C     0.05010   0.23760   0.74890   0.00000  Uiso   1.00
C125   C     0.13740   0.23190   0.79890   0.00000  Uiso   1.00
H126   H     0.20210   0.19340   0.79740   0.00000  Uiso   1.00
C127   C     0.13080   0.28160   0.85030   0.00000  Uiso   1.00
H128   H     0.18220   0.27400   0.88550   0.00000  Uiso   1.00
C129   C     0.06540   0.17930   0.69570   0.00000  Uiso   1.00
C130   C     0.18870   0.15080   0.66960   0.00000  Uiso   1.00
H131   H     0.26610   0.16490   0.68620   0.00000  Uiso   1.00
C132   C     0.19970   0.10030   0.61760   0.00000  Uiso   1.00
C133   C     0.08370   0.07590   0.59600   0.00000  Uiso   1.00
H134   H     0.08900   0.04040   0.56370   0.00000  Uiso   1.00
C135   C     0.96070   0.10510   0.62300   0.00000  Uiso   1.00
C136   C     0.94920   0.15980   0.66970   0.00000  Uiso   1.00
H137   H     0.86600   0.18310   0.68330   0.00000  Uiso   1.00
C138   C     0.83130   0.08790   0.59930   0.00000  Uiso   1.00
C139   C     0.33310   0.06950   0.58820   0.00000  Uiso   1.00
C140   C     0.51730   0.10670   0.41480   0.00000  Uiso   1.00
C141   C     0.53700   0.16220   0.35520   0.00000  Uiso   1.00
C142   C     0.61300   0.22380   0.36360   0.00000  Uiso   1.00
H143   H     0.64970   0.23080   0.40300   0.00000  Uiso   1.00
C144   C     0.63160   0.27620   0.30750   0.00000  Uiso   1.00
H145   H     0.68410   0.31640   0.30830   0.00000  Uiso   1.00
C146   C     0.56730   0.26150   0.25510   0.00000  Uiso   1.00
C147   C     0.49720   0.20290   0.24770   0.00000  Uiso   1.00
H148   H     0.46460   0.19550   0.20730   0.00000  Uiso   1.00
C149   C     0.47050   0.14950   0.30290   0.00000  Uiso   1.00
H150   H     0.41370   0.11110   0.30150   0.00000  Uiso   1.00
C151   C     0.58010   0.31880   0.19990   0.00000  Uiso   1.00
C152   C     0.70690   0.34600   0.17730   0.00000  Uiso   1.00
H153   H     0.78120   0.33540   0.20020   0.00000  Uiso   1.00
C154   C     0.71800   0.39100   0.11710   0.00000  Uiso   1.00
C155   C     0.60610   0.41280   0.08980   0.00000  Uiso   1.00
H156   H     0.61290   0.44590   0.05420   0.00000  Uiso   1.00
C157   C     0.47970   0.38750   0.11290   0.00000  Uiso   1.00
C158   C     0.47040   0.33990   0.16910   0.00000  Uiso   1.00
H159   H     0.38700   0.32280   0.18540   0.00000  Uiso   1.00
C160   C     0.35000   0.41640   0.08350   0.00000  Uiso   1.00
C161   C     0.85200   0.41560   0.08700   0.00000  Uiso   1.00
C162   C     0.53350   0.59990   0.10240   0.00000  Uiso   1.00
H163   H     0.57170   0.61310   0.14150   0.00000  Uiso   1.00
H164   H     0.47290   0.56150   0.11330   0.00000  Uiso   1.00
H165   H     0.60420   0.58330   0.06920   0.00000  Uiso   1.00
C166   C     0.33820   0.65730   0.06650   0.00000  Uiso   1.00
H167   H     0.30390   0.61110   0.07130   0.00000  Uiso   1.00
C168   C     0.24730   0.71800   0.04760   0.00000  Uiso   1.00
H169   H     0.16160   0.70990   0.03660   0.00000  Uiso   1.00
C170   C     0.29250   0.78480   0.04670   0.00000  Uiso   1.00
C171   C     0.44320   0.78810   0.04830   0.00000  Uiso   1.00
H172   H     0.49020   0.82900   0.03420   0.00000  Uiso   1.00
C173   C     0.50300   0.72750   0.07160   0.00000  Uiso   1.00
H174   H     0.58690   0.73290   0.08590   0.00000  Uiso   1.00
C175   C     0.21340   0.85360   0.02740   0.00000  Uiso   1.00
C176   C     0.18060   0.86340   0.96060   0.00000  Uiso   1.00
C177   C     0.22650   0.81140   0.90810   0.00000  Uiso   1.00
H178   H     0.28040   0.76870   0.91080   0.00000  Uiso   1.00
C179   C     0.17070   0.84060   0.85360   0.00000  Uiso   1.00
H180   H     0.18450   0.82190   0.81100   0.00000  Uiso   1.00
C181   C     0.08770   0.90450   0.87340   0.00000  Uiso   1.00
C182   C     0.17580   0.89630   0.08390   0.00000  Uiso   1.00
C183   C     0.20540   0.88320   0.15110   0.00000  Uiso   1.00
H184   H     0.25700   0.84380   0.16610   0.00000  Uiso   1.00
C185   C     0.14520   0.93780   0.18830   0.00000  Uiso   1.00
H186   H     0.14750   0.94260   0.23370   0.00000  Uiso   1.00
C187   C     0.07560   0.98830   0.14580   0.00000  Uiso   1.00
C188   C     0.00640   0.95070   0.83520   0.00000  Uiso   1.00
C189   C     0.00580   0.92970   0.76270   0.00000  Uiso   1.00
C190   C     0.12060   0.92220   0.71950   0.00000  Uiso   1.00
H191   H     0.20370   0.92910   0.73420   0.00000  Uiso   1.00
C192   C     0.11380   0.90420   0.65400   0.00000  Uiso   1.00
H193   H     0.19250   0.89980   0.62480   0.00000  Uiso   1.00
C194   C     0.87790   0.91850   0.73870   0.00000  Uiso   1.00
H195   H     0.79660   0.92580   0.76550   0.00000  Uiso   1.00
C196   C     0.88360   0.89650   0.67490   0.00000  Uiso   1.00
H197   H     0.80470   0.88290   0.65950   0.00000  Uiso   1.00
C198   C     0.98900   0.87150   0.56240   0.00000  Uiso   1.00
H199   H     0.06930   0.84330   0.54610   0.00000  Uiso   1.00
H200   H     0.97990   0.91440   0.53500   0.00000  Uiso   1.00
H201   H     0.91220   0.84270   0.56120   0.00000  Uiso   1.00
O202   O     0.34910   0.46630   0.05190   0.00000  Uiso   1.00
O203   O     0.25650   0.37050   0.08740   0.00000  Uiso   1.00
O204   O     0.86120   0.45200   0.03590   0.00000  Uiso   1.00
O205   O     0.95800   0.39180   0.11230   0.00000  Uiso   1.00
O206   O     0.59480   0.11180   0.45890   0.00000  Uiso   1.00
O207   O     0.42180   0.06910   0.40720   0.00000  Uiso   1.00
O208   O     0.83080   0.03500   0.55850   0.00000  Uiso   1.00
O209   O     0.72080   0.11060   0.61850   0.00000  Uiso   1.00
O210   O     0.32500   0.03350   0.54210   0.00000  Uiso   1.00
O211   O     0.43240   0.09130   0.60440   0.00000  Uiso   1.00
O212   O     0.11220   0.38810   0.94640   0.00000  Uiso   1.00
O213   O     0.94590   0.45090   0.89700   0.00000  Uiso   1.00
loop_
_geom_bond_atom_site_label_1
_geom_bond_atom_site_label_2
_geom_bond_distance
_geom_bond_site_symmetry_2
_ccdc_geom_bond_type
Cd1    O94     2.430   .     S
Cd1    O95     2.293   .     S
Cd1    O213    2.234   .     S
Cd1    O97     2.327   1_655 S
Cd1    O104    2.243   1_556 S
Cd1    O204    2.307   1_556 S
Cd2    O98     2.177   .     S
Cd2    O100    2.246   .     S
Cd2    O101    2.389   .     S
Cd2    O103    2.210   .     S
Cd2    O207    2.230   1_565 S
Cd2    O210    2.262   1_565 S
Cd3    Cl4     2.544   .     S
Cd3    N5      2.272   1_565 S
Cd3    N6      2.300   1_564 S
Cd3    Cd111   2.136   1_664 S
Cd3    N113    2.469   1_654 S
Cd3    N114    2.298   1_655 S
N5     C68     1.327   .     S
N5     C73     1.380   .     S
N5     Cd3     2.272   1_545 S
N5     Cd111   2.469   1_654 S
N6     C74     1.435   .     S
N6     C79     1.442   .     S
N6     Cd3     2.300   1_546 S
N6     Cd111   2.298   1_655 S
N7     C88     1.354   .     S
N7     C90     1.501   .     S
N7     C84     1.303   1_455 S
N8     C54     1.459   .     S
N8     C58     1.271   .     S
N8     C65     1.274   .     S
C10    C11     1.534   .     S
C10    O104    1.303   .     A
C10    O105    1.229   1_655 S
C11    C19     1.404   .     A
C11    C12     1.371   1_655 S
C12    H13     0.930   .     S
C12    C14     1.403   .     A
C12    C11     1.371   1_455 S
C14    H15     0.929   .     S
C14    C16     1.327   1_455 A
C16    C17     1.410   .     A
C16    C21     1.525   .     S
C16    C14     1.327   1_655 A
C17    H18     0.930   .     S
C17    C19     1.393   .     A
C19    H20     0.929   .     S
C21    C22     1.367   .     A
C21    C28     1.397   1_655 S
C22    H23     0.930   .     S
C22    C24     1.409   .     A
C24    C25     1.386   .     A
C24    C31     1.486   .     S
C25    H26     0.929   .     S
C25    C27     1.374   1_655 A
C27    C28     1.386   .     A
C27    C30     1.483   .     S
C27    C25     1.374   1_455 A
C28    H29     0.930   .     S
C28    C21     1.397   1_455 S
C30    O100    1.289   .     A
C30    O101    1.186   .     A
C31    O102    1.169   .     A
C31    O103    1.174   .     A
C32    C33     1.564   .     S
C32    O98     1.256   .     A
C32    O99     1.234   .     A
C33    C34     1.420   .     A
C33    C41     1.345   .     A
C34    H35     0.930   .     S
C34    C36     1.474   .     A
C36    H37     0.930   .     S
C36    C38     1.342   .     A
C38    C39     1.335   .     A
C38    C43     1.517   .     S
C39    H40     0.930   .     S
C39    C41     1.481   .     A
C41    H42     0.932   .     S
C43    C44     1.412   .     A
C43    C50     1.357   .     A
C44    H45     0.930   .     S
C44    C46     1.454   .     A
C46    C47     1.342   .     A
C46    C53     1.497   .     S
C47    H48     0.931   .     S
C47    C49     1.398   .     A
C49    C50     1.417   .     A
C49    C52     1.551   .     S
C50    H51     0.930   .     S
C52    O94     1.105   .     A
C52    O95     1.287   .     A
C53    O96     1.217   .     A
C53    O97     1.281   .     A
C54    H55     0.959   .     S
C54    H56     0.960   .     S
C54    H57     0.961   .     S
C58    H59     0.930   .     S
C58    C60     1.471   .     D
C60    H61     0.931   .     S
C60    C62     1.328   .     S
C62    C63     1.516   .     S
C62    C67     1.520   .     D
C63    H64     0.929   .     S
C63    C65     1.336   .     D
C65    H66     0.930   .     S
C67    C74     1.405   .     S
C67    C68     1.434   1_556 S
C68    C69     1.462   .     D
C68    C67     1.434   1_554 S
C69    H70     0.930   .     S
C69    C71     1.378   .     S
C71    H72     0.929   .     S
C71    C73     1.436   .     D
C73    C80     1.420   .     S
C74    C75     1.438   .     D
C75    H76     0.931   .     S
C75    C77     1.341   .     S
C77    H78     0.929   .     S
C77    C79     1.454   .     D
C79    C188    1.386   1_645 A
C80    C81     1.528   .     D
C80    C187    1.386   1_645 S
C81    C82     1.365   .     S
C81    C86     1.446   1_655 A
C82    H83     0.930   .     S
C82    C84     1.385   .     D
C84    H85     0.930   .     S
C84    N7      1.303   1_655 S
C86    H87     0.930   .     S
C86    C88     1.357   .     D
C86    C81     1.446   1_455 A
C88    H89     0.930   .     S
C90    H92     0.959   .     S
C90    H93     0.959   .     S
C90    H91     0.961   1_455 A
H91    C90     0.961   1_655 A
O96    Cd109   2.307   1_556 S
O97    Cd1     2.327   1_455 S
O99    Cd110   2.230   1_565 S
O102   Cd110   2.262   1_565 S
O104   Cd1     2.243   1_554 S
O105   Cd109   2.234   .     S
O105   C10     1.229   1_455 S
Cd109  O202    2.430   .     S
Cd109  O203    2.293   .     S
Cd109  O96     2.307   1_554 S
Cd109  O205    2.327   1_455 A
Cd109  O212    2.243   1_554 S
Cd110  O206    2.177   .     S
Cd110  O208    2.246   .     S
Cd110  O209    2.389   .     S
Cd110  O211    2.210   .     S
Cd110  O99     2.230   1_545 S
Cd110  O102    2.262   1_545 S
Cd111  Cl112   2.544   .     S
Cd111  Cd3     2.136   1_446 S
Cd111  N5      2.469   1_456 S
Cd111  N6      2.298   1_455 S
Cd111  N113    2.272   1_545 A
Cd111  N114    2.300   1_546 S
N113   C176    1.327   .     S
N113   C181    1.380   .     S
N113   Cd3     2.469   1_456 S
N113   Cd111   2.272   1_565 A
N114   C182    1.435   .     S
N114   C187    1.442   .     S
N114   Cd3     2.298   1_455 S
N114   Cd111   2.300   1_564 S
N115   C196    1.354   .     S
N115   C198    1.501   .     S
N115   C192    1.303   1_655 A
N116   C162    1.459   .     S
N116   C166    1.271   .     S
N116   C173    1.274   .     S
C118   C119    1.534   .     S
C118   O212    1.303   .     A
C118   O213    1.229   1_455 S
C119   C127    1.404   .     A
C119   C120    1.371   1_455 A
C120   H121    0.930   .     S
C120   C122    1.403   .     A
C120   C119    1.371   1_655 A
C122   H123    0.929   .     S
C122   C124    1.327   1_655 S
C124   C125    1.410   .     A
C124   C129    1.525   .     S
C124   C122    1.327   1_455 S
C125   H126    0.930   .     S
C125   C127    1.393   .     A
C127   H128    0.929   .     S
C129   C130    1.367   .     A
C129   C136    1.397   1_455 A
C130   H131    0.930   .     S
C130   C132    1.409   .     A
C132   C133    1.386   .     A
C132   C139    1.486   .     S
C133   H134    0.929   .     S
C133   C135    1.374   1_455 S
C135   C136    1.386   .     A
C135   C138    1.483   .     S
C135   C133    1.374   1_655 S
C136   H137    0.930   .     S
C136   C129    1.397   1_655 A
C138   O208    1.289   .     A
C138   O209    1.186   .     A
C139   O210    1.169   .     A
C139   O211    1.174   .     A
C140   C141    1.564   .     S
C140   O206    1.256   .     A
C140   O207    1.234   .     A
C141   C142    1.420   .     A
C141   C149    1.345   .     A
C142   H143    0.930   .     S
C142   C144    1.474   .     A
C144   H145    0.930   .     S
C144   C146    1.342   .     A
C146   C147    1.335   .     A
C146   C151    1.517   .     S
C147   H148    0.930   .     S
C147   C149    1.481   .     A
C149   H150    0.932   .     S
C151   C152    1.412   .     A
C151   C158    1.357   .     A
C152   H153    0.930   .     S
C152   C154    1.454   .     A
C154   C155    1.342   .     A
C154   C161    1.497   .     S
C155   H156    0.931   .     S
C155   C157    1.398   .     A
C157   C158    1.417   .     A
C157   C160    1.551   .     S
C158   H159    0.930   .     S
C160   O202    1.105   .     A
C160   O203    1.287   .     A
C161   O204    1.217   .     A
C161   O205    1.281   .     A
C162   H163    0.959   .     S
C162   H164    0.960   .     S
C162   H165    0.961   .     S
C166   H167    0.930   .     S
C166   C168    1.471   .     D
C168   H169    0.931   .     S
C168   C170    1.328   .     S
C170   C171    1.516   .     S
C170   C175    1.520   .     D
C171   H172    0.929   .     S
C171   C173    1.336   .     D
C173   H174    0.930   .     S
C175   C182    1.405   .     S
C175   C176    1.434   1_554 A
C176   C177    1.462   .     D
C176   C175    1.434   1_556 A
C177   H178    0.930   .     S
C177   C179    1.378   .     S
C179   H180    0.929   .     S
C179   C181    1.436   .     D
C181   C188    1.420   .     S
C182   C183    1.438   .     D
C183   H184    0.931   .     S
C183   C185    1.341   .     S
C185   H186    0.929   .     S
C185   C187    1.454   .     D
C187   C80     1.386   1_465 S
C188   C189    1.528   .     D
C188   C79     1.386   1_465 A
C189   C190    1.365   .     S
C189   C194    1.446   1_455 A
C190   H191    0.930   .     S
C190   C192    1.385   .     D
C192   H193    0.930   .     S
C192   N115    1.303   1_455 A
C194   H195    0.930   .     S
C194   C196    1.357   .     D
C194   C189    1.446   1_655 A
C196   H197    0.930   .     S
C198   H200    0.959   .     S
C198   H201    0.959   .     S
C198   H199    0.961   1_655 S
H199   C198    0.961   1_455 S
O204   Cd1     2.307   1_554 S
O205   Cd109   2.327   1_655 A
O207   Cd2     2.230   1_545 S
O210   Cd2     2.262   1_545 S
O212   Cd109   2.243   1_556 S
O213   C118    1.229   1_655 S
