data_HEJHAH_charged
_audit_creation_date              2014-07-02
_audit_creation_method            'Materials Studio'
_symmetry_space_group_name_H-M    'P1'
_symmetry_Int_Tables_number       1
_symmetry_cell_setting            triclinic
loop_
_symmetry_equiv_pos_as_xyz
  x,y,z
_cell_length_a                    10.0270
_cell_length_b                    18.4200
_cell_length_c                    20.5770
_cell_angle_alpha                 89.2690
_cell_angle_beta                  84.1800
_cell_angle_gamma                 88.4020
loop_
_atom_site_label
_atom_site_type_symbol
_atom_site_fract_x
_atom_site_fract_y
_atom_site_fract_z
_atom_site_U_iso_or_equiv
_atom_site_adp_type
_atom_site_occupancy
Cd1    Cd    0.10324   0.04402   0.54326   0.01267  Uiso   1.00
Cd2    Cd    0.60827   0.45295   0.04048   0.01267  Uiso   1.00
Cd3    Cd    0.89676   0.95598   0.45674   0.01267  Uiso   1.00
Cd4    Cd    0.39173   0.54705   0.95952   0.01267  Uiso   1.00
H1     H     0.39980   0.38840   0.80110   0.01267  Uiso   1.00
H2     H     0.40590   0.30410   0.71890   0.01267  Uiso   1.00
H3     H     0.70730   0.19640   0.79690   0.01267  Uiso   1.00
H4     H     0.69560   0.27980   0.87990   0.01267  Uiso   1.00
H5     H     0.76790   0.17450   0.68180   0.01267  Uiso   1.00
H6     H     0.57630   0.05240   0.56140   0.01267  Uiso   1.00
H7     H     0.36380   0.18740   0.68880   0.01267  Uiso   1.00
H8     H     0.89900   0.55210   0.94550   0.01267  Uiso   1.00
H9     H     0.11910   0.67950   0.81660   0.01267  Uiso   1.00
H10    H     0.72040   0.67110   0.81120   0.01267  Uiso   1.00
H11    H     0.07370   0.79780   0.78460   0.01267  Uiso   1.00
H12    H     0.09170   0.88230   0.70100   0.01267  Uiso   1.00
H13    H     0.81650   0.77670   0.61100   0.01267  Uiso   1.00
H14    H     0.79460   0.69420   0.69810   0.01267  Uiso   1.00
H15    H     0.60020   0.61160   0.19890   0.01267  Uiso   1.00
H16    H     0.59410   0.69590   0.28110   0.01267  Uiso   1.00
H17    H     0.29270   0.80360   0.20310   0.01267  Uiso   1.00
H18    H     0.30440   0.72020   0.12010   0.01267  Uiso   1.00
H19    H     0.23210   0.82550   0.31820   0.01267  Uiso   1.00
H20    H     0.42370   0.94760   0.43860   0.01267  Uiso   1.00
H21    H     0.63620   0.81260   0.31120   0.01267  Uiso   1.00
H22    H     0.10100   0.44790   0.05450   0.01267  Uiso   1.00
H23    H     0.88090   0.32050   0.18340   0.01267  Uiso   1.00
H24    H     0.27960   0.32890   0.18880   0.01267  Uiso   1.00
H25    H     0.92630   0.20220   0.21540   0.01267  Uiso   1.00
H26    H     0.90830   0.11770   0.29900   0.01267  Uiso   1.00
H27    H     0.18350   0.22330   0.38900   0.01267  Uiso   1.00
H28    H     0.20540   0.30580   0.30190   0.01267  Uiso   1.00
C1     C     0.53510   0.39580   0.90420   0.01267  Uiso   1.00
C2     C     0.54540   0.34250   0.84970   0.01267  Uiso   1.00
C3     C     0.46230   0.34860   0.80070   0.01267  Uiso   1.00
C4     C     0.46680   0.29910   0.75120   0.01267  Uiso   1.00
C5     C     0.55980   0.24180   0.74810   0.01267  Uiso   1.00
C6     C     0.64360   0.23560   0.79730   0.01267  Uiso   1.00
C7     C     0.63640   0.28520   0.84680   0.01267  Uiso   1.00
C8     C     0.56540   0.18830   0.69330   0.01267  Uiso   1.00
C9     C     0.68710   0.15960   0.66620   0.01267  Uiso   1.00
C10    C     0.69220   0.10880   0.61610   0.01267  Uiso   1.00
C11    C     0.57360   0.08760   0.59490   0.01267  Uiso   1.00
C12    C     0.45000   0.11580   0.62090   0.01267  Uiso   1.00
C13    C     0.44720   0.16710   0.67060   0.01267  Uiso   1.00
C14    C     0.32510   0.09210   0.59710   0.01267  Uiso   1.00
C15    C     0.82390   0.07950   0.58390   0.01267  Uiso   1.00
C16    C     0.65420   0.58540   0.91360   0.01267  Uiso   1.00
C17    C     0.79010   0.60940   0.88390   0.01267  Uiso   1.00
C18    C     0.90460   0.58580   0.91010   0.01267  Uiso   1.00
C19    C     0.02970   0.61140   0.88450   0.01267  Uiso   1.00
C20    C     0.03490   0.66070   0.83310   0.01267  Uiso   1.00
C21    C     0.92230   0.68320   0.80530   0.01267  Uiso   1.00
C22    C     0.79920   0.65670   0.83060   0.01267  Uiso   1.00
C23    C     0.93120   0.73670   0.74950   0.01267  Uiso   1.00
C24    C     0.02040   0.79350   0.74930   0.01267  Uiso   1.00
C25    C     0.03250   0.84310   0.69940   0.01267  Uiso   1.00
C26    C     0.95930   0.83680   0.64650   0.01267  Uiso   1.00
C27    C     0.86950   0.78130   0.64640   0.01267  Uiso   1.00
C28    C     0.85700   0.73210   0.69850   0.01267  Uiso   1.00
C29    C     0.15330   0.58550   0.91350   0.01267  Uiso   1.00
C30    C     0.97570   0.89080   0.59070   0.01267  Uiso   1.00
C31    C     0.46490   0.60420   0.09580   0.01267  Uiso   1.00
C32    C     0.45460   0.65750   0.15030   0.01267  Uiso   1.00
C33    C     0.53770   0.65140   0.19930   0.01267  Uiso   1.00
C34    C     0.53320   0.70090   0.24880   0.01267  Uiso   1.00
C35    C     0.44020   0.75820   0.25190   0.01267  Uiso   1.00
C36    C     0.35640   0.76440   0.20270   0.01267  Uiso   1.00
C37    C     0.36360   0.71480   0.15320   0.01267  Uiso   1.00
C38    C     0.43460   0.81170   0.30670   0.01267  Uiso   1.00
C39    C     0.31290   0.84040   0.33380   0.01267  Uiso   1.00
C40    C     0.30780   0.89120   0.38390   0.01267  Uiso   1.00
C41    C     0.42640   0.91240   0.40510   0.01267  Uiso   1.00
C42    C     0.55000   0.88420   0.37910   0.01267  Uiso   1.00
C43    C     0.55280   0.83290   0.32940   0.01267  Uiso   1.00
C44    C     0.67490   0.90790   0.40290   0.01267  Uiso   1.00
C45    C     0.17610   0.92050   0.41610   0.01267  Uiso   1.00
C46    C     0.34580   0.41460   0.08640   0.01267  Uiso   1.00
C47    C     0.20990   0.39060   0.11610   0.01267  Uiso   1.00
C48    C     0.09540   0.41420   0.08990   0.01267  Uiso   1.00
C49    C     0.97030   0.38860   0.11550   0.01267  Uiso   1.00
C50    C     0.96510   0.33930   0.16690   0.01267  Uiso   1.00
C51    C     0.07770   0.31680   0.19470   0.01267  Uiso   1.00
C52    C     0.20080   0.34330   0.16940   0.01267  Uiso   1.00
C53    C     0.06880   0.26330   0.25050   0.01267  Uiso   1.00
C54    C     0.97960   0.20650   0.25070   0.01267  Uiso   1.00
C55    C     0.96750   0.15690   0.30060   0.01267  Uiso   1.00
C56    C     0.04070   0.16320   0.35350   0.01267  Uiso   1.00
C57    C     0.13050   0.21870   0.35360   0.01267  Uiso   1.00
C58    C     0.14300   0.26790   0.30150   0.01267  Uiso   1.00
C59    C     0.84670   0.41450   0.08650   0.01267  Uiso   1.00
C60    C     0.02430   0.10920   0.40930   0.01267  Uiso   1.00
O1     O     0.92890   0.10160   0.60050   0.01267  Uiso   1.00
O2     O     0.81690   0.03280   0.54220   0.01267  Uiso   1.00
O3     O     0.60590   0.38460   0.95021   0.01267  Uiso   1.00
O4     O     0.45280   0.44810   0.89904   0.01267  Uiso   1.00
O5     O     0.65050   0.54420   0.96135   0.01267  Uiso   1.00
O6     O     0.55190   0.60720   0.89110   0.01267  Uiso   1.00
O7     O     0.15990   0.52990   0.94320   0.01267  Uiso   1.00
O8     O     0.25340   0.62580   0.90690   0.01267  Uiso   1.00
O9     O     0.05730   0.93970   0.59710   0.01267  Uiso   1.00
O10    O     0.90920   0.88230   0.54431   0.01267  Uiso   1.00
O11    O     0.21450   0.11540   0.62490   0.01267  Uiso   1.00
O12    O     0.33020   0.04630   0.55520   0.01267  Uiso   1.00
O13    O     0.07110   0.89840   0.39950   0.01267  Uiso   1.00
O14    O     0.18310   0.96720   0.45780   0.01267  Uiso   1.00
O15    O     0.39410   0.61540   0.04979   0.01267  Uiso   1.00
O16    O     0.54720   0.55190   0.10096   0.01267  Uiso   1.00
O17    O     0.34950   0.45580   0.03865   0.01267  Uiso   1.00
O18    O     0.44810   0.39280   0.10890   0.01267  Uiso   1.00
O19    O     0.84010   0.47010   0.05680   0.01267  Uiso   1.00
O20    O     0.74660   0.37420   0.09310   0.01267  Uiso   1.00
O21    O     0.94270   0.06030   0.40290   0.01267  Uiso   1.00
O22    O     0.09080   0.11770   0.45569   0.01267  Uiso   1.00
O23    O     0.78550   0.88460   0.37510   0.01267  Uiso   1.00
O24    O     0.66980   0.95370   0.44480   0.01267  Uiso   1.00
Cd5    Cd    0.43419   0.97128   0.00829   0.01267  Uiso   1.00
Cd6    Cd    0.56581   0.02872   0.99171   0.01267  Uiso   1.00
H29    H     0.58890   0.90300   0.54030   0.01267  Uiso   1.00
H30    H     0.42980   0.91690   0.54850   0.01267  Uiso   1.00
H31    H     0.49140   0.83750   0.56120   0.01267  Uiso   1.00
H32    H     0.70200   0.92250   0.62730   0.01267  Uiso   1.00
H33    H     0.71450   0.95470   0.73390   0.01267  Uiso   1.00
H34    H     0.31610   0.93220   0.76740   0.01267  Uiso   1.00
H35    H     0.30940   0.90170   0.65850   0.01267  Uiso   1.00
H36    H     0.36110   0.06920   0.76960   0.01267  Uiso   1.00
H37    H     0.24990   0.16210   0.84270   0.01267  Uiso   1.00
H38    H     0.67810   0.83230   0.80870   0.01267  Uiso   1.00
H39    H     0.78050   0.77970   0.90280   0.01267  Uiso   1.00
H40    H     0.34960   0.28210   0.95000   0.01267  Uiso   1.00
H41    H     0.21510   0.37940   0.92110   0.01267  Uiso   1.00
H42    H     0.89580   0.27040   0.97160   0.01267  Uiso   1.00
H43    H     0.02700   0.16650   0.98890   0.01267  Uiso   1.00
H44    H     0.97840   0.39930   0.86850   0.01267  Uiso   1.00
H45    H     0.86660   0.38210   0.92740   0.01267  Uiso   1.00
H46    H     0.98340   0.43690   0.93780   0.01267  Uiso   1.00
H47    H     0.41110   0.09700   0.45970   0.01267  Uiso   1.00
H48    H     0.57020   0.08310   0.45150   0.01267  Uiso   1.00
H49    H     0.50860   0.16250   0.43880   0.01267  Uiso   1.00
H50    H     0.29800   0.07750   0.37270   0.01267  Uiso   1.00
H51    H     0.28550   0.04530   0.26610   0.01267  Uiso   1.00
H52    H     0.68390   0.06780   0.23260   0.01267  Uiso   1.00
H53    H     0.69060   0.09830   0.34150   0.01267  Uiso   1.00
H54    H     0.63890   0.93080   0.23040   0.01267  Uiso   1.00
H55    H     0.75010   0.83790   0.15730   0.01267  Uiso   1.00
H56    H     0.32190   0.16770   0.19130   0.01267  Uiso   1.00
H57    H     0.21950   0.22030   0.09720   0.01267  Uiso   1.00
H58    H     0.65040   0.71790   0.05000   0.01267  Uiso   1.00
H59    H     0.78490   0.62060   0.07890   0.01267  Uiso   1.00
H60    H     0.10420   0.72960   0.02840   0.01267  Uiso   1.00
H61    H     0.97300   0.83350   0.01110   0.01267  Uiso   1.00
H62    H     0.02160   0.60070   0.13150   0.01267  Uiso   1.00
H63    H     0.13340   0.61790   0.07260   0.01267  Uiso   1.00
H64    H     0.01660   0.56310   0.06220   0.01267  Uiso   1.00
C61    C     0.50460   0.88970   0.56530   0.01267  Uiso   1.00
C62    C     0.62270   0.92360   0.65680   0.01267  Uiso   1.00
C63    C     0.63070   0.94190   0.72020   0.01267  Uiso   1.00
C64    C     0.51630   0.94200   0.76530   0.01267  Uiso   1.00
C65    C     0.39750   0.92890   0.73950   0.01267  Uiso   1.00
C66    C     0.39220   0.91120   0.67510   0.01267  Uiso   1.00
C67    C     0.51620   0.96160   0.83570   0.01267  Uiso   1.00
C68    C     0.43560   0.02190   0.85620   0.01267  Uiso   1.00
C69    C     0.36430   0.07190   0.81540   0.01267  Uiso   1.00
C70    C     0.30410   0.12240   0.85550   0.01267  Uiso   1.00
C71    C     0.33510   0.10660   0.92110   0.01267  Uiso   1.00
C72    C     0.59470   0.91480   0.87290   0.01267  Uiso   1.00
C73    C     0.66910   0.85100   0.85170   0.01267  Uiso   1.00
C74    C     0.72410   0.82210   0.90290   0.01267  Uiso   1.00
C75    C     0.68190   0.86690   0.95800   0.01267  Uiso   1.00
C76    C     0.29150   0.14640   0.97730   0.01267  Uiso   1.00
C77    C     0.20200   0.21200   0.96600   0.01267  Uiso   1.00
C78    C     0.25570   0.27650   0.95030   0.01267  Uiso   1.00
C79    C     0.17490   0.33480   0.93440   0.01267  Uiso   1.00
C80    C     0.99050   0.27130   0.96200   0.01267  Uiso   1.00
C81    C     0.06910   0.21010   0.97430   0.01267  Uiso   1.00
C82    C     0.96140   0.39250   0.91590   0.01267  Uiso   1.00
C83    C     0.49540   0.11030   0.43470   0.01267  Uiso   1.00
C84    C     0.37730   0.07640   0.34320   0.01267  Uiso   1.00
C85    C     0.36930   0.05810   0.27980   0.01267  Uiso   1.00
C86    C     0.48370   0.05800   0.23470   0.01267  Uiso   1.00
C87    C     0.60250   0.07110   0.26050   0.01267  Uiso   1.00
C88    C     0.60780   0.08880   0.32490   0.01267  Uiso   1.00
C89    C     0.48380   0.03840   0.16430   0.01267  Uiso   1.00
C90    C     0.56440   0.97810   0.14380   0.01267  Uiso   1.00
C91    C     0.63570   0.92810   0.18460   0.01267  Uiso   1.00
C92    C     0.69590   0.87760   0.14450   0.01267  Uiso   1.00
C93    C     0.66490   0.89340   0.07890   0.01267  Uiso   1.00
C94    C     0.40530   0.08520   0.12710   0.01267  Uiso   1.00
C95    C     0.33090   0.14900   0.14830   0.01267  Uiso   1.00
C96    C     0.27590   0.17790   0.09710   0.01267  Uiso   1.00
C97    C     0.31810   0.13310   0.04200   0.01267  Uiso   1.00
C98    C     0.70850   0.85360   0.02270   0.01267  Uiso   1.00
C99    C     0.79800   0.78800   0.03400   0.01267  Uiso   1.00
C100   C     0.74430   0.72350   0.04970   0.01267  Uiso   1.00
C101   C     0.82510   0.66520   0.06560   0.01267  Uiso   1.00
C102   C     0.00950   0.72870   0.03800   0.01267  Uiso   1.00
C103   C     0.93090   0.78990   0.02570   0.01267  Uiso   1.00
C104   C     0.03860   0.60750   0.08410   0.01267  Uiso   1.00
N1     N     0.60540   0.92290   0.93730   0.01267  Uiso   1.00
N2     N     0.41630   0.04530   0.91900   0.01267  Uiso   1.00
N3     N     0.51000   0.90770   0.63580   0.01267  Uiso   1.00
N4     N     0.04700   0.33010   0.93720   0.01267  Uiso   1.00
N5     N     0.39460   0.07710   0.06270   0.01267  Uiso   1.00
N6     N     0.58370   0.95470   0.08100   0.01267  Uiso   1.00
N7     N     0.49000   0.09230   0.36420   0.01267  Uiso   1.00
N8     N     0.95300   0.66990   0.06280   0.01267  Uiso   1.00
O25    O     0.27100   0.88370   0.02230   0.01267  Uiso   1.00
O26    O     0.72900   0.11630   0.97770   0.01267  Uiso   1.00
