data_HEXNII_clean
_audit_creation_date              2014-07-02
_audit_creation_method            'Materials Studio'
_symmetry_space_group_name_H-M    'P1'
_symmetry_Int_Tables_number       1
_symmetry_cell_setting            triclinic
loop_
_symmetry_equiv_pos_as_xyz
  x,y,z
_cell_length_a                    7.6396
_cell_length_b                    10.1725
_cell_length_c                    12.1168
_cell_angle_alpha                 114.8200
_cell_angle_beta                  96.9017
_cell_angle_gamma                 90.0000
loop_
_atom_site_label
_atom_site_type_symbol
_atom_site_fract_x
_atom_site_fract_y
_atom_site_fract_z
_atom_site_U_iso_or_equiv
_atom_site_adp_type
_atom_site_occupancy
Cd1    Cd    0.00000   0.00000   0.50000   0.01267  Uiso   1.00
Cd2    Cd    0.50000   0.50000   0.50000   0.01267  Uiso   1.00
H1     H     0.97850   0.81620   0.65780   0.01267  Uiso   1.00
H2     H     0.89990   0.82270   0.83540   0.01267  Uiso   1.00
H3     H     0.70580   0.21300   0.90540   0.01267  Uiso   1.00
H4     H     0.79000   0.19450   0.72440   0.01267  Uiso   1.00
H5     H     0.52150   0.15840   0.34220   0.01267  Uiso   1.00
H6     H     0.60010   0.98730   0.16460   0.01267  Uiso   1.00
H7     H     0.79420   0.30760   0.09460   0.01267  Uiso   1.00
H8     H     0.71000   0.47010   0.27560   0.01267  Uiso   1.00
H9     H     0.02150   0.18380   0.34220   0.01267  Uiso   1.00
H10    H     0.10010   0.17730   0.16460   0.01267  Uiso   1.00
H11    H     0.29420   0.78700   0.09460   0.01267  Uiso   1.00
H12    H     0.21000   0.80550   0.27560   0.01267  Uiso   1.00
H13    H     0.47850   0.84160   0.65780   0.01267  Uiso   1.00
H14    H     0.39990   0.01270   0.83540   0.01267  Uiso   1.00
H15    H     0.20580   0.69240   0.90540   0.01267  Uiso   1.00
H16    H     0.29000   0.52990   0.72440   0.01267  Uiso   1.00
H17    H     0.75000   0.93180   0.00000   0.01267  Uiso   1.00
H18    H     0.25000   0.06820   0.00000   0.01267  Uiso   1.00
C1     C     0.12720   0.64668   0.41616   0.01267  Uiso   1.00
C2     C     0.79810   0.02117   0.89514   0.01267  Uiso   1.00
C3     C     0.92510   0.89752   0.70884   0.01267  Uiso   1.00
C4     C     0.87820   0.90080   0.81580   0.01267  Uiso   1.00
C5     C     0.76300   0.13209   0.85758   0.01267  Uiso   1.00
C6     C     0.81440   0.11990   0.74820   0.01267  Uiso   1.00
C7     C     0.37280   0.23052   0.58384   0.01267  Uiso   1.00
C8     C     0.70190   0.12603   0.10486   0.01267  Uiso   1.00
C9     C     0.57490   0.18868   0.29116   0.01267  Uiso   1.00
C10    C     0.62180   0.08500   0.18420   0.01267  Uiso   1.00
C11    C     0.73700   0.27451   0.14242   0.01267  Uiso   1.00
C12    C     0.68560   0.37170   0.25180   0.01267  Uiso   1.00
C13    C     0.87280   0.35332   0.58384   0.01267  Uiso   1.00
C14    C     0.20190   0.97883   0.10486   0.01267  Uiso   1.00
C15    C     0.07490   0.10248   0.29116   0.01267  Uiso   1.00
C16    C     0.12180   0.09920   0.18420   0.01267  Uiso   1.00
C17    C     0.23700   0.86791   0.14242   0.01267  Uiso   1.00
C18    C     0.18560   0.88010   0.25180   0.01267  Uiso   1.00
C19    C     0.62720   0.76948   0.41616   0.01267  Uiso   1.00
C20    C     0.29810   0.87397   0.89514   0.01267  Uiso   1.00
C21    C     0.42510   0.81132   0.70884   0.01267  Uiso   1.00
C22    C     0.37820   0.91500   0.81580   0.01267  Uiso   1.00
C23    C     0.26300   0.72549   0.85758   0.01267  Uiso   1.00
C24    C     0.31440   0.62830   0.74820   0.01267  Uiso   1.00
S1     S     0.17687   0.47472   0.36066   0.01267  Uiso   1.00
S2     S     0.32313   0.11406   0.63934   0.01267  Uiso   1.00
S3     S     0.82313   0.52528   0.63934   0.01267  Uiso   1.00
S4     S     0.67687   0.88594   0.36066   0.01267  Uiso   1.00
N1     N     0.09070   0.76647   0.45454   0.01267  Uiso   1.00
N2     N     0.89750   0.00661   0.67422   0.01267  Uiso   1.00
N3     N     0.40930   0.31193   0.54546   0.01267  Uiso   1.00
N4     N     0.60250   0.33239   0.32578   0.01267  Uiso   1.00
N5     N     0.90930   0.23353   0.54546   0.01267  Uiso   1.00
N6     N     0.10250   0.99339   0.32578   0.01267  Uiso   1.00
N7     N     0.59070   0.68807   0.45454   0.01267  Uiso   1.00
N8     N     0.39750   0.66761   0.67422   0.01267  Uiso   1.00
N9     N     0.75000   0.01660   0.00000   0.01267  Uiso   1.00
N10    N     0.25000   0.98340   0.00000   0.01267  Uiso   1.00
