data_HIFGOU_clean
_audit_creation_date              2014-07-02
_audit_creation_method            'Materials Studio'
_symmetry_space_group_name_H-M    'P1'
_symmetry_Int_Tables_number       1
_symmetry_cell_setting            triclinic
loop_
_symmetry_equiv_pos_as_xyz
  x,y,z
_cell_length_a                    9.7280
_cell_length_b                    11.6720
_cell_length_c                    14.5540
_cell_angle_alpha                 93.4660
_cell_angle_beta                  96.3670
_cell_angle_gamma                 93.1750
loop_
_atom_site_label
_atom_site_type_symbol
_atom_site_fract_x
_atom_site_fract_y
_atom_site_fract_z
_atom_site_U_iso_or_equiv
_atom_site_adp_type
_atom_site_occupancy
Zn1    Zn    0.13538   0.96233   0.97337   0.01267  Uiso   1.00
Zn2    Zn    0.86462   0.03767   0.02663   0.01267  Uiso   1.00
H1     H     0.04440   0.25650   0.26620   0.01267  Uiso   1.00
H2     H     0.16540   0.36530   0.38830   0.01267  Uiso   1.00
H3     H     0.51360   0.34760   0.26430   0.01267  Uiso   1.00
H4     H     0.39470   0.23140   0.14550   0.01267  Uiso   1.00
H5     H     0.35460   0.34250   0.51520   0.01267  Uiso   1.00
H6     H     0.48580   0.53410   0.26910   0.01267  Uiso   1.00
H7     H     0.50900   0.65920   0.31610   0.01267  Uiso   1.00
H8     H     0.63540   0.58280   0.30890   0.01267  Uiso   1.00
H9     H     0.85930   0.79530   0.20580   0.01267  Uiso   1.00
H10    H     0.83770   0.68110   0.32800   0.01267  Uiso   1.00
H11    H     0.23350   0.60780   0.32870   0.01267  Uiso   1.00
H12    H     0.25150   0.71370   0.20140   0.01267  Uiso   1.00
H13    H     0.85600   0.46940   0.36310   0.01267  Uiso   1.00
H14    H     0.22850   0.72200   0.47070   0.01267  Uiso   1.00
H15    H     0.20900   0.73370   0.57620   0.01267  Uiso   1.00
H16    H     0.31160   0.64690   0.54040   0.01267  Uiso   1.00
H17    H     0.40870   0.09040   0.96100   0.01267  Uiso   1.00
H18    H     0.56960   0.11360   0.85840   0.01267  Uiso   1.00
H19    H     0.35600   0.87380   0.68990   0.01267  Uiso   1.00
H20    H     0.20490   0.85170   0.79720   0.01267  Uiso   1.00
H21    H     0.65620   0.95400   0.70580   0.01267  Uiso   1.00
H22    H     0.62810   0.08420   0.69750   0.01267  Uiso   1.00
H23    H     0.38010   0.10000   0.60380   0.01267  Uiso   1.00
H24    H     0.51300   0.14510   0.56150   0.01267  Uiso   1.00
H25    H     0.69110   0.01650   0.53310   0.01267  Uiso   1.00
H26    H     0.67440   0.88710   0.55640   0.01267  Uiso   1.00
H27    H     0.95560   0.74350   0.73380   0.01267  Uiso   1.00
H28    H     0.83460   0.63470   0.61170   0.01267  Uiso   1.00
H29    H     0.48640   0.65240   0.73570   0.01267  Uiso   1.00
H30    H     0.60530   0.76860   0.85450   0.01267  Uiso   1.00
H31    H     0.64540   0.65750   0.48480   0.01267  Uiso   1.00
H32    H     0.51420   0.46590   0.73090   0.01267  Uiso   1.00
H33    H     0.49100   0.34080   0.68390   0.01267  Uiso   1.00
H34    H     0.36460   0.41720   0.69110   0.01267  Uiso   1.00
H35    H     0.14070   0.20470   0.79420   0.01267  Uiso   1.00
H36    H     0.16230   0.31890   0.67200   0.01267  Uiso   1.00
H37    H     0.76650   0.39220   0.67130   0.01267  Uiso   1.00
H38    H     0.74850   0.28630   0.79860   0.01267  Uiso   1.00
H39    H     0.14400   0.53060   0.63690   0.01267  Uiso   1.00
H40    H     0.77150   0.27800   0.52930   0.01267  Uiso   1.00
H41    H     0.79100   0.26630   0.42380   0.01267  Uiso   1.00
H42    H     0.68840   0.35310   0.45960   0.01267  Uiso   1.00
H43    H     0.59130   0.90960   0.03900   0.01267  Uiso   1.00
H44    H     0.43040   0.88640   0.14160   0.01267  Uiso   1.00
H45    H     0.64400   0.12620   0.31010   0.01267  Uiso   1.00
H46    H     0.79510   0.14830   0.20280   0.01267  Uiso   1.00
H47    H     0.34380   0.04600   0.29420   0.01267  Uiso   1.00
H48    H     0.37190   0.91580   0.30250   0.01267  Uiso   1.00
H49    H     0.61990   0.90000   0.39620   0.01267  Uiso   1.00
H50    H     0.48700   0.85490   0.43850   0.01267  Uiso   1.00
H51    H     0.30890   0.98350   0.46690   0.01267  Uiso   1.00
H52    H     0.32560   0.11290   0.44360   0.01267  Uiso   1.00
C1     C     0.13180   0.15110   0.11720   0.01267  Uiso   1.00
C2     C     0.20580   0.23060   0.19310   0.01267  Uiso   1.00
C3     C     0.13910   0.27320   0.26630   0.01267  Uiso   1.00
C4     C     0.21150   0.33980   0.33900   0.01267  Uiso   1.00
C5     C     0.35370   0.37010   0.34040   0.01267  Uiso   1.00
C6     C     0.41980   0.32840   0.26560   0.01267  Uiso   1.00
C7     C     0.34830   0.25930   0.19390   0.01267  Uiso   1.00
C8     C     0.42920   0.43840   0.41990   0.01267  Uiso   1.00
C9     C     0.41390   0.40630   0.50910   0.01267  Uiso   1.00
C10    C     0.51840   0.53650   0.40990   0.01267  Uiso   1.00
C11    C     0.53900   0.58230   0.31770   0.01267  Uiso   1.00
C12    C     0.06920   0.84460   0.11290   0.01267  Uiso   1.00
C13    C     0.05680   0.76750   0.19100   0.01267  Uiso   1.00
C14    C     0.93500   0.75690   0.22990   0.01267  Uiso   1.00
C15    C     0.92260   0.69010   0.30480   0.01267  Uiso   1.00
C16    C     0.03570   0.63690   0.34490   0.01267  Uiso   1.00
C17    C     0.15750   0.64560   0.30430   0.01267  Uiso   1.00
C18    C     0.16880   0.70960   0.22790   0.01267  Uiso   1.00
C19    C     0.01990   0.56850   0.42620   0.01267  Uiso   1.00
C20    C     0.91390   0.48140   0.41850   0.01267  Uiso   1.00
C21    C     0.10840   0.58770   0.50990   0.01267  Uiso   1.00
C22    C     0.22510   0.68120   0.52580   0.01267  Uiso   1.00
C23    C     0.39740   0.04500   0.90570   0.01267  Uiso   1.00
C24    C     0.49450   0.06030   0.84350   0.01267  Uiso   1.00
C25    C     0.47960   0.99770   0.76120   0.01267  Uiso   1.00
C26    C     0.36970   0.91930   0.74520   0.01267  Uiso   1.00
C27    C     0.27850   0.90670   0.80990   0.01267  Uiso   1.00
C28    C     0.58460   0.00690   0.69160   0.01267  Uiso   1.00
C29    C     0.44790   0.07930   0.56260   0.01267  Uiso   1.00
C30    C     0.62460   0.95170   0.53440   0.01267  Uiso   1.00
C31    C     0.86820   0.84890   0.88280   0.01267  Uiso   1.00
C32    C     0.79420   0.76940   0.80690   0.01267  Uiso   1.00
C33    C     0.86090   0.72680   0.73370   0.01267  Uiso   1.00
C34    C     0.78850   0.66020   0.66100   0.01267  Uiso   1.00
C35    C     0.64630   0.62990   0.65960   0.01267  Uiso   1.00
C36    C     0.58020   0.67160   0.73440   0.01267  Uiso   1.00
C37    C     0.65170   0.74070   0.80610   0.01267  Uiso   1.00
C38    C     0.57080   0.56160   0.58010   0.01267  Uiso   1.00
C39    C     0.58610   0.59370   0.49090   0.01267  Uiso   1.00
C40    C     0.48160   0.46350   0.59010   0.01267  Uiso   1.00
C41    C     0.46100   0.41770   0.68230   0.01267  Uiso   1.00
C42    C     0.93080   0.15540   0.88710   0.01267  Uiso   1.00
C43    C     0.94320   0.23250   0.80900   0.01267  Uiso   1.00
C44    C     0.06500   0.24310   0.77010   0.01267  Uiso   1.00
C45    C     0.07740   0.30990   0.69520   0.01267  Uiso   1.00
C46    C     0.96430   0.36310   0.65510   0.01267  Uiso   1.00
C47    C     0.84250   0.35440   0.69570   0.01267  Uiso   1.00
C48    C     0.83120   0.29040   0.77210   0.01267  Uiso   1.00
C49    C     0.98010   0.43150   0.57380   0.01267  Uiso   1.00
C50    C     0.08610   0.51860   0.58150   0.01267  Uiso   1.00
C51    C     0.89160   0.41230   0.49010   0.01267  Uiso   1.00
C52    C     0.77490   0.31880   0.47420   0.01267  Uiso   1.00
C53    C     0.60260   0.95500   0.09430   0.01267  Uiso   1.00
C54    C     0.50550   0.93970   0.15650   0.01267  Uiso   1.00
C55    C     0.52040   0.00230   0.23880   0.01267  Uiso   1.00
C56    C     0.63030   0.08070   0.25480   0.01267  Uiso   1.00
C57    C     0.72150   0.09330   0.19010   0.01267  Uiso   1.00
C58    C     0.41540   0.99310   0.30840   0.01267  Uiso   1.00
C59    C     0.55210   0.92070   0.43740   0.01267  Uiso   1.00
C60    C     0.37540   0.04830   0.46560   0.01267  Uiso   1.00
N1     N     0.29060   0.96960   0.89020   0.01267  Uiso   1.00
N2     N     0.52190   0.98120   0.59690   0.01267  Uiso   1.00
N3     N     0.70940   0.03040   0.10980   0.01267  Uiso   1.00
N4     N     0.47810   0.01880   0.40310   0.01267  Uiso   1.00
O1     O     0.20420   0.09050   0.07018   0.01267  Uiso   1.00
O2     O     0.99990   0.14990   0.10810   0.01267  Uiso   1.00
O3     O     0.17340   0.84180   0.06932   0.01267  Uiso   1.00
O4     O     0.97080   0.90800   0.09606   0.01267  Uiso   1.00
O5     O     0.79580   0.90950   0.92982   0.01267  Uiso   1.00
O6     O     0.00010   0.85010   0.89190   0.01267  Uiso   1.00
O7     O     0.82660   0.15820   0.93068   0.01267  Uiso   1.00
O8     O     0.02920   0.09200   0.90394   0.01267  Uiso   1.00
