data_HIWXER01_clean
_audit_creation_date              2014-07-02
_audit_creation_method            'Materials Studio'
_symmetry_space_group_name_H-M    'P1'
_symmetry_Int_Tables_number       1
_symmetry_cell_setting            triclinic
loop_
_symmetry_equiv_pos_as_xyz
  x,y,z
_cell_length_a                    8.5505
_cell_length_b                    9.1091
_cell_length_c                    14.2113
_cell_angle_alpha                 108.6170
_cell_angle_beta                  90.0000
_cell_angle_gamma                 117.9910
loop_
_atom_site_label
_atom_site_type_symbol
_atom_site_fract_x
_atom_site_fract_y
_atom_site_fract_z
_atom_site_U_iso_or_equiv
_atom_site_adp_type
_atom_site_occupancy
Zn1    Zn    0.29264   0.44558   0.86563   0.01267  Uiso   1.00
Zn2    Zn    0.40966   0.19028   0.97128   0.01267  Uiso   1.00
Zn3    Zn    0.84706   0.55442   0.63437   0.01267  Uiso   1.00
Zn4    Zn    0.21938   0.80972   0.52872   0.01267  Uiso   1.00
Zn5    Zn    0.70736   0.55442   0.13437   0.01267  Uiso   1.00
Zn6    Zn    0.59034   0.80972   0.02872   0.01267  Uiso   1.00
Zn7    Zn    0.15294   0.44558   0.36563   0.01267  Uiso   1.00
Zn8    Zn    0.78062   0.19028   0.47128   0.01267  Uiso   1.00
Zn9    Zn    0.12327   0.00000   0.75000   0.01267  Uiso   1.00
Zn10   Zn    0.87673   0.00000   0.25000   0.01267  Uiso   1.00
C1     C     0.65750   0.63020   0.81900   0.01267  Uiso   1.00
C2     C     0.50550   0.32260   0.72490   0.01267  Uiso   1.00
C3     C     0.02730   0.36980   0.68100   0.01267  Uiso   1.00
C4     C     0.18290   0.67740   0.77510   0.01267  Uiso   1.00
C5     C     0.34250   0.36980   0.18100   0.01267  Uiso   1.00
C6     C     0.49450   0.67740   0.27510   0.01267  Uiso   1.00
C7     C     0.97270   0.63020   0.31900   0.01267  Uiso   1.00
C8     C     0.81710   0.32260   0.22490   0.01267  Uiso   1.00
N1     N     0.77930   0.68580   0.75850   0.01267  Uiso   1.00
N2     N     0.88070   0.86380   0.80510   0.01267  Uiso   1.00
N3     N     0.82930   0.91840   0.88850   0.01267  Uiso   1.00
N4     N     0.69080   0.77680   0.89990   0.01267  Uiso   1.00
N5     N     0.61670   0.33400   0.65610   0.01267  Uiso   1.00
N6     N     0.54650   0.16760   0.58770   0.01267  Uiso   1.00
N7     N     0.40240   0.06340   0.61550   0.01267  Uiso   1.00
N8     N     0.37160   0.15600   0.70140   0.01267  Uiso   1.00
N9     N     0.52200   0.46660   0.80590   0.01267  Uiso   1.00
N10    N     0.09350   0.31420   0.74150   0.01267  Uiso   1.00
N11    N     0.01690   0.13620   0.69490   0.01267  Uiso   1.00
N12    N     0.91090   0.08160   0.61150   0.01267  Uiso   1.00
N13    N     0.91400   0.22320   0.60010   0.01267  Uiso   1.00
N14    N     0.28270   0.66600   0.84390   0.01267  Uiso   1.00
N15    N     0.37890   0.83240   0.91230   0.01267  Uiso   1.00
N16    N     0.33900   0.93660   0.88450   0.01267  Uiso   1.00
N17    N     0.21560   0.84400   0.79860   0.01267  Uiso   1.00
N18    N     0.05540   0.53340   0.69410   0.01267  Uiso   1.00
N19    N     0.22070   0.31420   0.24150   0.01267  Uiso   1.00
N20    N     0.11930   0.13620   0.19490   0.01267  Uiso   1.00
N21    N     0.17070   0.08160   0.11150   0.01267  Uiso   1.00
N22    N     0.30920   0.22320   0.10010   0.01267  Uiso   1.00
N23    N     0.38330   0.66600   0.34390   0.01267  Uiso   1.00
N24    N     0.45350   0.83240   0.41230   0.01267  Uiso   1.00
N25    N     0.59760   0.93660   0.38450   0.01267  Uiso   1.00
N26    N     0.62840   0.84400   0.29860   0.01267  Uiso   1.00
N27    N     0.47800   0.53340   0.19410   0.01267  Uiso   1.00
N28    N     0.90650   0.68580   0.25850   0.01267  Uiso   1.00
N29    N     0.98310   0.86380   0.30510   0.01267  Uiso   1.00
N30    N     0.08910   0.91840   0.38850   0.01267  Uiso   1.00
N31    N     0.08600   0.77680   0.39990   0.01267  Uiso   1.00
N32    N     0.71730   0.33400   0.15610   0.01267  Uiso   1.00
N33    N     0.62110   0.16760   0.08770   0.01267  Uiso   1.00
N34    N     0.66100   0.06340   0.11550   0.01267  Uiso   1.00
N35    N     0.78440   0.15600   0.20140   0.01267  Uiso   1.00
N36    N     0.94460   0.46660   0.30590   0.01267  Uiso   1.00
O1     O     0.22610   0.20700   0.88840   0.01267  Uiso   1.00
O2     O     0.36610   0.59960   0.01120   0.01267  Uiso   1.00
O3     O     0.01910   0.79300   0.61160   0.01267  Uiso   1.00
O4     O     0.76650   0.40040   0.48880   0.01267  Uiso   1.00
O5     O     0.77390   0.79300   0.11160   0.01267  Uiso   1.00
O6     O     0.63390   0.40040   0.98880   0.01267  Uiso   1.00
O7     O     0.98090   0.20700   0.38840   0.01267  Uiso   1.00
O8     O     0.23350   0.59960   0.51120   0.01267  Uiso   1.00
