data_HOGTOM_clean
_audit_creation_date              2014-07-02
_audit_creation_method            'Materials Studio'
_symmetry_space_group_name_H-M    'P1'
_symmetry_Int_Tables_number       1
_symmetry_cell_setting            triclinic
loop_
_symmetry_equiv_pos_as_xyz
  x,y,z
_cell_length_a                    13.4240
_cell_length_b                    13.4240
_cell_length_c                    14.7520
_cell_angle_alpha                 90.0000
_cell_angle_beta                  90.0000
_cell_angle_gamma                 120.0000
loop_
_atom_site_label
_atom_site_type_symbol
_atom_site_fract_x
_atom_site_fract_y
_atom_site_fract_z
_atom_site_U_iso_or_equiv
_atom_site_adp_type
_atom_site_occupancy
Pr1    Pr    0.66667   0.33334   0.83120   0.01267  Uiso   1.00
Pr2    Pr    0.33333   0.66666   0.66880   0.01267  Uiso   1.00
Pr3    Pr    0.33333   0.66666   0.16880   0.01267  Uiso   1.00
Pr4    Pr    0.66667   0.33334   0.33120   0.01267  Uiso   1.00
Cu1    Cu    0.50000   0.00000   0.00000   0.01267  Uiso   1.00
Cu2    Cu    0.50000   0.50000   0.00000   0.01267  Uiso   1.00
Cu3    Cu    1.00000   0.50000   0.00000   0.01267  Uiso   1.00
Cu4    Cu    0.50000   0.00000   0.50000   0.01267  Uiso   1.00
Cu5    Cu    1.00000   0.50000   0.50000   0.01267  Uiso   1.00
Cu6    Cu    0.50000   0.50000   0.50000   0.01267  Uiso   1.00
C1     C     0.72940   0.17890   0.93010   0.01267  Uiso   1.00
C2     C     0.74320   0.09720   0.99200   0.01267  Uiso   1.00
C3     C     0.66100   0.10900   0.14000   0.01267  Uiso   1.00
C4     C     0.56380   0.12290   0.15800   0.01267  Uiso   1.00
C5     C     0.44950   0.27060   0.93010   0.01267  Uiso   1.00
C6     C     0.35400   0.25680   0.99200   0.01267  Uiso   1.00
C7     C     0.44800   0.33900   0.14000   0.01267  Uiso   1.00
C8     C     0.55910   0.43620   0.15800   0.01267  Uiso   1.00
C9     C     0.82110   0.55050   0.93010   0.01267  Uiso   1.00
C10    C     0.90280   0.64600   0.99200   0.01267  Uiso   1.00
C11    C     0.89100   0.55200   0.14000   0.01267  Uiso   1.00
C12    C     0.87710   0.44090   0.15800   0.01267  Uiso   1.00
C13    C     0.55050   0.82110   0.56990   0.01267  Uiso   1.00
C14    C     0.64600   0.90280   0.50800   0.01267  Uiso   1.00
C15    C     0.55200   0.89100   0.36000   0.01267  Uiso   1.00
C16    C     0.44090   0.87710   0.34200   0.01267  Uiso   1.00
C17    C     0.17890   0.72940   0.56990   0.01267  Uiso   1.00
C18    C     0.09720   0.74320   0.50800   0.01267  Uiso   1.00
C19    C     0.10900   0.66100   0.36000   0.01267  Uiso   1.00
C20    C     0.12290   0.56380   0.34200   0.01267  Uiso   1.00
C21    C     0.27060   0.44950   0.56990   0.01267  Uiso   1.00
C22    C     0.25680   0.35400   0.50800   0.01267  Uiso   1.00
C23    C     0.33900   0.44800   0.36000   0.01267  Uiso   1.00
C24    C     0.43620   0.55910   0.34200   0.01267  Uiso   1.00
C25    C     0.27060   0.82110   0.06990   0.01267  Uiso   1.00
C26    C     0.25680   0.90280   0.00800   0.01267  Uiso   1.00
C27    C     0.33900   0.89100   0.86000   0.01267  Uiso   1.00
C28    C     0.43620   0.87710   0.84200   0.01267  Uiso   1.00
C29    C     0.55050   0.72940   0.06990   0.01267  Uiso   1.00
C30    C     0.64600   0.74320   0.00800   0.01267  Uiso   1.00
C31    C     0.55200   0.66100   0.86000   0.01267  Uiso   1.00
C32    C     0.44090   0.56380   0.84200   0.01267  Uiso   1.00
C33    C     0.17890   0.44950   0.06990   0.01267  Uiso   1.00
C34    C     0.09720   0.35400   0.00800   0.01267  Uiso   1.00
C35    C     0.10900   0.44800   0.86000   0.01267  Uiso   1.00
C36    C     0.12290   0.55910   0.84200   0.01267  Uiso   1.00
C37    C     0.44950   0.17890   0.43010   0.01267  Uiso   1.00
C38    C     0.35400   0.09720   0.49200   0.01267  Uiso   1.00
C39    C     0.44800   0.10900   0.64000   0.01267  Uiso   1.00
C40    C     0.55910   0.12290   0.65800   0.01267  Uiso   1.00
C41    C     0.82110   0.27060   0.43010   0.01267  Uiso   1.00
C42    C     0.90280   0.25680   0.49200   0.01267  Uiso   1.00
C43    C     0.89100   0.33900   0.64000   0.01267  Uiso   1.00
C44    C     0.87710   0.43620   0.65800   0.01267  Uiso   1.00
C45    C     0.72940   0.55050   0.43010   0.01267  Uiso   1.00
C46    C     0.74320   0.64600   0.49200   0.01267  Uiso   1.00
C47    C     0.66100   0.55200   0.64000   0.01267  Uiso   1.00
C48    C     0.56380   0.44090   0.65800   0.01267  Uiso   1.00
N1     N     0.65200   0.03960   0.05700   0.01267  Uiso   1.00
N2     N     0.38760   0.34800   0.05700   0.01267  Uiso   1.00
N3     N     0.96040   0.61240   0.05700   0.01267  Uiso   1.00
N4     N     0.61240   0.96040   0.44300   0.01267  Uiso   1.00
N5     N     0.03960   0.65200   0.44300   0.01267  Uiso   1.00
N6     N     0.34800   0.38760   0.44300   0.01267  Uiso   1.00
N7     N     0.34800   0.96040   0.94300   0.01267  Uiso   1.00
N8     N     0.61240   0.65200   0.94300   0.01267  Uiso   1.00
N9     N     0.03960   0.38760   0.94300   0.01267  Uiso   1.00
N10    N     0.38760   0.03960   0.55700   0.01267  Uiso   1.00
N11    N     0.96040   0.34800   0.55700   0.01267  Uiso   1.00
N12    N     0.65200   0.61240   0.55700   0.01267  Uiso   1.00
O1     O     0.80150   0.24390   0.87220   0.01267  Uiso   1.00
O2     O     0.63860   0.18760   0.94070   0.01267  Uiso   1.00
O3     O     0.56370   0.17810   0.22600   0.01267  Uiso   1.00
O4     O     0.47120   0.07050   0.10450   0.01267  Uiso   1.00
O5     O     0.44240   0.19850   0.87220   0.01267  Uiso   1.00
O6     O     0.54900   0.36140   0.94070   0.01267  Uiso   1.00
O7     O     0.61440   0.43630   0.22600   0.01267  Uiso   1.00
O8     O     0.59930   0.52880   0.10450   0.01267  Uiso   1.00
O9     O     0.75610   0.55760   0.87220   0.01267  Uiso   1.00
O10    O     0.81240   0.45100   0.94070   0.01267  Uiso   1.00
O11    O     0.82190   0.38560   0.22600   0.01267  Uiso   1.00
O12    O     0.92950   0.40070   0.10450   0.01267  Uiso   1.00
O13    O     0.55760   0.75610   0.62780   0.01267  Uiso   1.00
O14    O     0.45100   0.81240   0.55930   0.01267  Uiso   1.00
O15    O     0.38560   0.82190   0.27400   0.01267  Uiso   1.00
O16    O     0.40070   0.92950   0.39550   0.01267  Uiso   1.00
O17    O     0.24390   0.80150   0.62780   0.01267  Uiso   1.00
O18    O     0.18760   0.63860   0.55930   0.01267  Uiso   1.00
O19    O     0.17810   0.56370   0.27400   0.01267  Uiso   1.00
O20    O     0.07050   0.47120   0.39550   0.01267  Uiso   1.00
O21    O     0.19850   0.44240   0.62780   0.01267  Uiso   1.00
O22    O     0.36140   0.54900   0.55930   0.01267  Uiso   1.00
O23    O     0.43630   0.61440   0.27400   0.01267  Uiso   1.00
O24    O     0.52880   0.59930   0.39550   0.01267  Uiso   1.00
O25    O     0.19850   0.75610   0.12780   0.01267  Uiso   1.00
O26    O     0.36140   0.81240   0.05930   0.01267  Uiso   1.00
O27    O     0.43630   0.82190   0.77400   0.01267  Uiso   1.00
O28    O     0.52880   0.92950   0.89550   0.01267  Uiso   1.00
O29    O     0.55760   0.80150   0.12780   0.01267  Uiso   1.00
O30    O     0.45100   0.63860   0.05930   0.01267  Uiso   1.00
O31    O     0.38560   0.56370   0.77400   0.01267  Uiso   1.00
O32    O     0.40070   0.47120   0.89550   0.01267  Uiso   1.00
O33    O     0.24390   0.44240   0.12780   0.01267  Uiso   1.00
O34    O     0.18760   0.54900   0.05930   0.01267  Uiso   1.00
O35    O     0.17810   0.61440   0.77400   0.01267  Uiso   1.00
O36    O     0.07050   0.59930   0.89550   0.01267  Uiso   1.00
O37    O     0.44240   0.24390   0.37220   0.01267  Uiso   1.00
O38    O     0.54900   0.18760   0.44070   0.01267  Uiso   1.00
O39    O     0.61440   0.17810   0.72600   0.01267  Uiso   1.00
O40    O     0.59930   0.07050   0.60450   0.01267  Uiso   1.00
O41    O     0.75610   0.19850   0.37220   0.01267  Uiso   1.00
O42    O     0.81240   0.36140   0.44070   0.01267  Uiso   1.00
O43    O     0.82190   0.43630   0.72600   0.01267  Uiso   1.00
O44    O     0.92950   0.52880   0.60450   0.01267  Uiso   1.00
O45    O     0.80150   0.55760   0.37220   0.01267  Uiso   1.00
O46    O     0.63860   0.45100   0.44070   0.01267  Uiso   1.00
O47    O     0.56370   0.38560   0.72600   0.01267  Uiso   1.00
O48    O     0.47120   0.40070   0.60450   0.01267  Uiso   1.00
