data_HOPHUP_clean
_audit_creation_date              2014-07-02
_audit_creation_method            'Materials Studio'
_symmetry_space_group_name_H-M    'P1'
_symmetry_Int_Tables_number       1
_symmetry_cell_setting            triclinic
loop_
_symmetry_equiv_pos_as_xyz
  x,y,z
_cell_length_a                    7.4850
_cell_length_b                    7.9030
_cell_length_c                    9.3550
_cell_angle_alpha                 90.0000
_cell_angle_beta                  90.0000
_cell_angle_gamma                 118.2500
loop_
_atom_site_label
_atom_site_type_symbol
_atom_site_fract_x
_atom_site_fract_y
_atom_site_fract_z
_atom_site_U_iso_or_equiv
_atom_site_adp_type
_atom_site_occupancy
V1     V     0.56600   0.03820   0.25000   0.01267  Uiso   1.00
V2     V     0.43400   0.96180   0.75000   0.01267  Uiso   1.00
V3     V     0.03920   0.99490   0.75000   0.01267  Uiso   1.00
V4     V     0.96080   0.00510   0.25000   0.01267  Uiso   1.00
P1     P     0.63170   0.80820   0.51600   0.01267  Uiso   1.00
P2     P     0.36830   0.19180   0.01600   0.01267  Uiso   1.00
P3     P     0.36830   0.19180   0.48400   0.01267  Uiso   1.00
P4     P     0.63170   0.80820   0.98400   0.01267  Uiso   1.00
C1     C     0.53950   0.57170   0.42810   0.01267  Uiso   1.00
C2     C     0.46050   0.42830   0.92810   0.01267  Uiso   1.00
C3     C     0.46050   0.42830   0.57190   0.01267  Uiso   1.00
C4     C     0.53950   0.57170   0.07190   0.01267  Uiso   1.00
O1     O     0.81120   0.81430   0.61150   0.01267  Uiso   1.00
O2     O     0.70510   0.93450   0.38860   0.01267  Uiso   1.00
O3     O     0.49140   0.85800   0.59280   0.01267  Uiso   1.00
O4     O     0.18880   0.18570   0.11150   0.01267  Uiso   1.00
O5     O     0.29490   0.06550   0.88860   0.01267  Uiso   1.00
O6     O     0.50860   0.14200   0.09280   0.01267  Uiso   1.00
O7     O     0.18880   0.18570   0.38850   0.01267  Uiso   1.00
O8     O     0.29490   0.06550   0.61140   0.01267  Uiso   1.00
O9     O     0.50860   0.14200   0.40720   0.01267  Uiso   1.00
O10    O     0.81120   0.81430   0.88850   0.01267  Uiso   1.00
O11    O     0.70510   0.93450   0.11140   0.01267  Uiso   1.00
O12    O     0.49140   0.85800   0.90720   0.01267  Uiso   1.00
O13    O     0.89590   0.27150   0.25000   0.01267  Uiso   1.00
O14    O     0.10410   0.72850   0.75000   0.01267  Uiso   1.00
