data_IBOTAU_clean
_audit_creation_date              2014-07-02
_audit_creation_method            'Materials Studio'
_symmetry_space_group_name_H-M    'P1'
_symmetry_Int_Tables_number       1
_symmetry_cell_setting            triclinic
loop_
_symmetry_equiv_pos_as_xyz
  x,y,z
_cell_length_a                    9.3630
_cell_length_b                    9.3630
_cell_length_c                    9.3630
_cell_angle_alpha                 93.2247
_cell_angle_beta                  93.2247
_cell_angle_gamma                 93.2247
loop_
_atom_site_label
_atom_site_type_symbol
_atom_site_fract_x
_atom_site_fract_y
_atom_site_fract_z
_atom_site_U_iso_or_equiv
_atom_site_adp_type
_atom_site_occupancy
Zn1    Zn    0.93813   0.66658   0.12556   0.01267  Uiso   1.00
Zn2    Zn    0.12556   0.93813   0.66658   0.01267  Uiso   1.00
Zn3    Zn    0.66658   0.12556   0.93813   0.01267  Uiso   1.00
Zn4    Zn    0.06187   0.33342   0.87444   0.01267  Uiso   1.00
Zn5    Zn    0.87444   0.06187   0.33342   0.01267  Uiso   1.00
Zn6    Zn    0.33342   0.87444   0.06187   0.01267  Uiso   1.00
Zn7    Zn    0.00000   0.00000   0.00000   0.01267  Uiso   1.00
P1     P     0.12027   0.68690   0.87339   0.01267  Uiso   1.00
P2     P     0.87339   0.12027   0.68690   0.01267  Uiso   1.00
P3     P     0.68690   0.87339   0.12027   0.01267  Uiso   1.00
P4     P     0.87973   0.31310   0.12661   0.01267  Uiso   1.00
P5     P     0.12661   0.87973   0.31310   0.01267  Uiso   1.00
P6     P     0.31310   0.12661   0.87973   0.01267  Uiso   1.00
O1     O     0.14570   0.94070   0.46660   0.01267  Uiso   1.00
O2     O     0.74580   0.72470   0.12030   0.01267  Uiso   1.00
O3     O     0.05240   0.73050   0.30140   0.01267  Uiso   1.00
O4     O     0.02080   0.77400   0.96820   0.01267  Uiso   1.00
O5     O     0.46660   0.14570   0.94070   0.01267  Uiso   1.00
O6     O     0.12030   0.74580   0.72470   0.01267  Uiso   1.00
O7     O     0.30140   0.05240   0.73050   0.01267  Uiso   1.00
O8     O     0.96820   0.02080   0.77400   0.01267  Uiso   1.00
O9     O     0.94070   0.46660   0.14570   0.01267  Uiso   1.00
O10    O     0.72470   0.12030   0.74580   0.01267  Uiso   1.00
O11    O     0.73050   0.30140   0.05240   0.01267  Uiso   1.00
O12    O     0.77400   0.96820   0.02080   0.01267  Uiso   1.00
O13    O     0.85430   0.05930   0.53340   0.01267  Uiso   1.00
O14    O     0.25420   0.27530   0.87970   0.01267  Uiso   1.00
O15    O     0.94760   0.26950   0.69860   0.01267  Uiso   1.00
O16    O     0.97920   0.22600   0.03180   0.01267  Uiso   1.00
O17    O     0.53340   0.85430   0.05930   0.01267  Uiso   1.00
O18    O     0.87970   0.25420   0.27530   0.01267  Uiso   1.00
O19    O     0.69860   0.94760   0.26950   0.01267  Uiso   1.00
O20    O     0.03180   0.97920   0.22600   0.01267  Uiso   1.00
O21    O     0.05930   0.53340   0.85430   0.01267  Uiso   1.00
O22    O     0.27530   0.87970   0.25420   0.01267  Uiso   1.00
O23    O     0.26950   0.69860   0.94760   0.01267  Uiso   1.00
O24    O     0.22600   0.03180   0.97920   0.01267  Uiso   1.00
