data_ICALOP_clean
_audit_creation_date              2014-07-02
_audit_creation_method            'Materials Studio'
_symmetry_space_group_name_H-M    'P1'
_symmetry_Int_Tables_number       1
_symmetry_cell_setting            triclinic
loop_
_symmetry_equiv_pos_as_xyz
  x,y,z
_cell_length_a                    9.9060
_cell_length_b                    17.3790
_cell_length_c                    22.0430
_cell_angle_alpha                 90.0000
_cell_angle_beta                  90.0000
_cell_angle_gamma                 90.0000
loop_
_atom_site_label
_atom_site_type_symbol
_atom_site_fract_x
_atom_site_fract_y
_atom_site_fract_z
_atom_site_U_iso_or_equiv
_atom_site_adp_type
_atom_site_occupancy
In1    In    0.75000   0.58469   0.32818   0.01267  Uiso   1.00
In2    In    0.25000   0.91531   0.82818   0.01267  Uiso   1.00
In3    In    0.25000   0.41531   0.67182   0.01267  Uiso   1.00
In4    In    0.75000   0.08469   0.17182   0.01267  Uiso   1.00
H1     H     0.54630   0.27470   0.55060   0.01267  Uiso   1.00
H2     H     0.83080   0.17450   0.49720   0.01267  Uiso   1.00
H3     H     0.45370   0.22530   0.05060   0.01267  Uiso   1.00
H4     H     0.16920   0.32550   0.99720   0.01267  Uiso   1.00
H5     H     0.04630   0.72530   0.44940   0.01267  Uiso   1.00
H6     H     0.33080   0.82550   0.50280   0.01267  Uiso   1.00
H7     H     0.95370   0.77470   0.94940   0.01267  Uiso   1.00
H8     H     0.66920   0.67450   0.00280   0.01267  Uiso   1.00
H9     H     0.45370   0.72530   0.44940   0.01267  Uiso   1.00
H10    H     0.16920   0.82550   0.50280   0.01267  Uiso   1.00
H11    H     0.54630   0.77470   0.94940   0.01267  Uiso   1.00
H12    H     0.83080   0.67450   0.00280   0.01267  Uiso   1.00
H13    H     0.95370   0.27470   0.55060   0.01267  Uiso   1.00
H14    H     0.66920   0.17450   0.49720   0.01267  Uiso   1.00
H15    H     0.04630   0.22530   0.05060   0.01267  Uiso   1.00
H16    H     0.33080   0.32550   0.99720   0.01267  Uiso   1.00
H17    H     0.75000   0.35400   0.45630   0.01267  Uiso   1.00
H18    H     0.75000   0.14120   0.38470   0.01267  Uiso   1.00
H19    H     0.75000   0.32340   0.27320   0.01267  Uiso   1.00
H20    H     0.75000   0.41800   0.67100   0.01267  Uiso   1.00
H21    H     0.25000   0.14600   0.95630   0.01267  Uiso   1.00
H22    H     0.25000   0.35880   0.88470   0.01267  Uiso   1.00
H23    H     0.25000   0.17660   0.77320   0.01267  Uiso   1.00
H24    H     0.25000   0.08200   0.17100   0.01267  Uiso   1.00
H25    H     0.25000   0.64600   0.54370   0.01267  Uiso   1.00
H26    H     0.25000   0.85880   0.61530   0.01267  Uiso   1.00
H27    H     0.25000   0.67660   0.72680   0.01267  Uiso   1.00
H28    H     0.25000   0.58200   0.32900   0.01267  Uiso   1.00
H29    H     0.75000   0.85400   0.04370   0.01267  Uiso   1.00
H30    H     0.75000   0.64120   0.11530   0.01267  Uiso   1.00
H31    H     0.75000   0.82340   0.22680   0.01267  Uiso   1.00
H32    H     0.75000   0.91800   0.82900   0.01267  Uiso   1.00
C1     C     0.62730   0.35090   0.61280   0.01267  Uiso   1.00
C2     C     0.49710   0.37840   0.63370   0.01267  Uiso   1.00
C3     C     0.62860   0.29420   0.56650   0.01267  Uiso   1.00
C4     C     0.37270   0.14910   0.11280   0.01267  Uiso   1.00
C5     C     0.50290   0.12160   0.13370   0.01267  Uiso   1.00
C6     C     0.37140   0.20580   0.06650   0.01267  Uiso   1.00
C7     C     0.12730   0.64910   0.38720   0.01267  Uiso   1.00
C8     C     0.99710   0.62160   0.36630   0.01267  Uiso   1.00
C9     C     0.12860   0.70580   0.43350   0.01267  Uiso   1.00
C10    C     0.87270   0.85090   0.88720   0.01267  Uiso   1.00
C11    C     0.00290   0.87840   0.86630   0.01267  Uiso   1.00
C12    C     0.87140   0.79420   0.93350   0.01267  Uiso   1.00
C13    C     0.37270   0.64910   0.38720   0.01267  Uiso   1.00
C14    C     0.50290   0.62160   0.36630   0.01267  Uiso   1.00
C15    C     0.37140   0.70580   0.43350   0.01267  Uiso   1.00
C16    C     0.62730   0.85090   0.88720   0.01267  Uiso   1.00
C17    C     0.49710   0.87840   0.86630   0.01267  Uiso   1.00
C18    C     0.62860   0.79420   0.93350   0.01267  Uiso   1.00
C19    C     0.87270   0.35090   0.61280   0.01267  Uiso   1.00
C20    C     0.00290   0.37840   0.63370   0.01267  Uiso   1.00
C21    C     0.87140   0.29420   0.56650   0.01267  Uiso   1.00
C22    C     0.12730   0.14910   0.11280   0.01267  Uiso   1.00
C23    C     0.99710   0.12160   0.13370   0.01267  Uiso   1.00
C24    C     0.12860   0.20580   0.06650   0.01267  Uiso   1.00
C25    C     0.75000   0.35360   0.36320   0.01267  Uiso   1.00
C26    C     0.75000   0.24390   0.43090   0.01267  Uiso   1.00
C27    C     0.75000   0.22730   0.32140   0.01267  Uiso   1.00
C28    C     0.75000   0.43820   0.35380   0.01267  Uiso   1.00
C29    C     0.75000   0.37690   0.63480   0.01267  Uiso   1.00
C30    C     0.75000   0.32090   0.42200   0.01267  Uiso   1.00
C31    C     0.75000   0.17350   0.26750   0.01267  Uiso   1.00
C32    C     0.75000   0.19550   0.37970   0.01267  Uiso   1.00
C33    C     0.75000   0.30310   0.31320   0.01267  Uiso   1.00
C34    C     0.75000   0.26790   0.54490   0.01267  Uiso   1.00
C35    C     0.75000   0.20760   0.49310   0.01267  Uiso   1.00
C36    C     0.25000   0.14640   0.86320   0.01267  Uiso   1.00
C37    C     0.25000   0.25610   0.93090   0.01267  Uiso   1.00
C38    C     0.25000   0.27270   0.82140   0.01267  Uiso   1.00
C39    C     0.25000   0.06180   0.85380   0.01267  Uiso   1.00
C40    C     0.25000   0.12310   0.13480   0.01267  Uiso   1.00
C41    C     0.25000   0.17910   0.92200   0.01267  Uiso   1.00
C42    C     0.25000   0.32650   0.76750   0.01267  Uiso   1.00
C43    C     0.25000   0.30450   0.87970   0.01267  Uiso   1.00
C44    C     0.25000   0.19690   0.81320   0.01267  Uiso   1.00
C45    C     0.25000   0.23210   0.04490   0.01267  Uiso   1.00
C46    C     0.25000   0.29240   0.99310   0.01267  Uiso   1.00
C47    C     0.25000   0.64640   0.63680   0.01267  Uiso   1.00
C48    C     0.25000   0.75610   0.56910   0.01267  Uiso   1.00
C49    C     0.25000   0.77270   0.67860   0.01267  Uiso   1.00
C50    C     0.25000   0.56180   0.64620   0.01267  Uiso   1.00
C51    C     0.25000   0.62310   0.36520   0.01267  Uiso   1.00
C52    C     0.25000   0.67910   0.57800   0.01267  Uiso   1.00
C53    C     0.25000   0.82650   0.73250   0.01267  Uiso   1.00
C54    C     0.25000   0.80450   0.62030   0.01267  Uiso   1.00
C55    C     0.25000   0.69690   0.68680   0.01267  Uiso   1.00
C56    C     0.25000   0.73210   0.45510   0.01267  Uiso   1.00
C57    C     0.25000   0.79240   0.50690   0.01267  Uiso   1.00
C58    C     0.75000   0.85360   0.13680   0.01267  Uiso   1.00
C59    C     0.75000   0.74390   0.06910   0.01267  Uiso   1.00
C60    C     0.75000   0.72730   0.17860   0.01267  Uiso   1.00
C61    C     0.75000   0.93820   0.14620   0.01267  Uiso   1.00
C62    C     0.75000   0.87690   0.86520   0.01267  Uiso   1.00
C63    C     0.75000   0.82090   0.07800   0.01267  Uiso   1.00
C64    C     0.75000   0.67350   0.23250   0.01267  Uiso   1.00
C65    C     0.75000   0.69550   0.12030   0.01267  Uiso   1.00
C66    C     0.75000   0.80310   0.18680   0.01267  Uiso   1.00
C67    C     0.75000   0.76790   0.95510   0.01267  Uiso   1.00
C68    C     0.75000   0.70760   0.00690   0.01267  Uiso   1.00
O1     O     0.48770   0.41900   0.68047   0.01267  Uiso   1.00
O2     O     0.38930   0.36060   0.60528   0.01267  Uiso   1.00
O3     O     0.51230   0.08100   0.18047   0.01267  Uiso   1.00
O4     O     0.61070   0.13940   0.10528   0.01267  Uiso   1.00
O5     O     0.98770   0.58100   0.31953   0.01267  Uiso   1.00
O6     O     0.88930   0.63940   0.39472   0.01267  Uiso   1.00
O7     O     0.01230   0.91900   0.81953   0.01267  Uiso   1.00
O8     O     0.11070   0.86060   0.89472   0.01267  Uiso   1.00
O9     O     0.51230   0.58100   0.31953   0.01267  Uiso   1.00
O10    O     0.61070   0.63940   0.39472   0.01267  Uiso   1.00
O11    O     0.48770   0.91900   0.81953   0.01267  Uiso   1.00
O12    O     0.38930   0.86060   0.89472   0.01267  Uiso   1.00
O13    O     0.01230   0.41900   0.68047   0.01267  Uiso   1.00
O14    O     0.11070   0.36060   0.60528   0.01267  Uiso   1.00
O15    O     0.98770   0.08100   0.18047   0.01267  Uiso   1.00
O16    O     0.88930   0.13940   0.10528   0.01267  Uiso   1.00
O17    O     0.75000   0.10160   0.27400   0.01267  Uiso   1.00
O18    O     0.75000   0.48230   0.39830   0.01267  Uiso   1.00
O19    O     0.75000   0.46390   0.30030   0.01267  Uiso   1.00
O20    O     0.75000   0.20150   0.21530   0.01267  Uiso   1.00
O21    O     0.25000   0.39840   0.77400   0.01267  Uiso   1.00
O22    O     0.25000   0.01770   0.89830   0.01267  Uiso   1.00
O23    O     0.25000   0.03610   0.80030   0.01267  Uiso   1.00
O24    O     0.25000   0.29850   0.71530   0.01267  Uiso   1.00
O25    O     0.25000   0.89840   0.72600   0.01267  Uiso   1.00
O26    O     0.25000   0.51770   0.60170   0.01267  Uiso   1.00
O27    O     0.25000   0.53610   0.69970   0.01267  Uiso   1.00
O28    O     0.25000   0.79850   0.78470   0.01267  Uiso   1.00
O29    O     0.75000   0.60160   0.22600   0.01267  Uiso   1.00
O30    O     0.75000   0.98230   0.10170   0.01267  Uiso   1.00
O31    O     0.75000   0.96390   0.19970   0.01267  Uiso   1.00
O32    O     0.75000   0.70150   0.28470   0.01267  Uiso   1.00
