data_ICANAD_clean
_audit_creation_date              2014-07-02
_audit_creation_method            'Materials Studio'
_symmetry_space_group_name_H-M    'P1'
_symmetry_Int_Tables_number       1
_symmetry_cell_setting            triclinic
loop_
_symmetry_equiv_pos_as_xyz
  x,y,z
_cell_length_a                    13.9917
_cell_length_b                    13.9917
_cell_length_c                    13.9917
_cell_angle_alpha                 104.8030
_cell_angle_beta                  104.8030
_cell_angle_gamma                 104.8030
loop_
_atom_site_label
_atom_site_type_symbol
_atom_site_fract_x
_atom_site_fract_y
_atom_site_fract_z
_atom_site_U_iso_or_equiv
_atom_site_adp_type
_atom_site_occupancy
Ag1    Ag    0.78492   0.78492   0.51416   0.01267  Uiso   1.00
Ag2    Ag    0.51416   0.78492   0.78492   0.01267  Uiso   1.00
Ag3    Ag    0.78492   0.51416   0.78492   0.01267  Uiso   1.00
Ag4    Ag    0.21508   0.21508   0.48584   0.01267  Uiso   1.00
Ag5    Ag    0.21508   0.48584   0.21508   0.01267  Uiso   1.00
Ag6    Ag    0.48584   0.21508   0.21508   0.01267  Uiso   1.00
Ag7    Ag    0.00000   0.27741   0.72259   0.01267  Uiso   1.00
Ag8    Ag    0.72259  -0.00000   0.27741   0.01267  Uiso   1.00
Ag9    Ag    0.27741   0.72259   0.00000   0.01267  Uiso   1.00
Ag10   Ag    0.00000   0.72259   0.27741   0.01267  Uiso   1.00
Ag11   Ag    0.27741  -0.00000   0.72259   0.01267  Uiso   1.00
Ag12   Ag    0.72259   0.27741   0.00000   0.01267  Uiso   1.00
H1     H     0.52510   0.64630   0.28830   0.01267  Uiso   1.00
H2     H     0.82100   0.09760   0.58180   0.01267  Uiso   1.00
H3     H     0.76910   0.97630   0.52400   0.01267  Uiso   1.00
H4     H     0.80890   0.60320   0.53240   0.01267  Uiso   1.00
H5     H     0.17420   0.24490   0.75930   0.01267  Uiso   1.00
H6     H     0.28830   0.52510   0.64630   0.01267  Uiso   1.00
H7     H     0.58180   0.82100   0.09760   0.01267  Uiso   1.00
H8     H     0.52400   0.76910   0.97630   0.01267  Uiso   1.00
H9     H     0.53240   0.80890   0.60320   0.01267  Uiso   1.00
H10    H     0.75930   0.17420   0.24490   0.01267  Uiso   1.00
H11    H     0.64630   0.28830   0.52510   0.01267  Uiso   1.00
H12    H     0.09760   0.58180   0.82100   0.01267  Uiso   1.00
H13    H     0.97630   0.52400   0.76910   0.01267  Uiso   1.00
H14    H     0.60320   0.53240   0.80890   0.01267  Uiso   1.00
H15    H     0.24490   0.75930   0.17420   0.01267  Uiso   1.00
H16    H     0.35370   0.47490   0.71170   0.01267  Uiso   1.00
H17    H     0.90240   0.17900   0.41820   0.01267  Uiso   1.00
H18    H     0.02370   0.23090   0.47600   0.01267  Uiso   1.00
H19    H     0.39680   0.19110   0.46760   0.01267  Uiso   1.00
H20    H     0.75510   0.82580   0.24070   0.01267  Uiso   1.00
H21    H     0.47490   0.71170   0.35370   0.01267  Uiso   1.00
H22    H     0.17900   0.41820   0.90240   0.01267  Uiso   1.00
H23    H     0.23090   0.47600   0.02370   0.01267  Uiso   1.00
H24    H     0.19110   0.46760   0.39680   0.01267  Uiso   1.00
H25    H     0.82580   0.24070   0.75510   0.01267  Uiso   1.00
H26    H     0.71170   0.35370   0.47490   0.01267  Uiso   1.00
H27    H     0.41820   0.90240   0.17900   0.01267  Uiso   1.00
H28    H     0.47600   0.02370   0.23090   0.01267  Uiso   1.00
H29    H     0.46760   0.39680   0.19110   0.01267  Uiso   1.00
H30    H     0.24070   0.75510   0.82580   0.01267  Uiso   1.00
H31    H     0.47490   0.35370   0.71170   0.01267  Uiso   1.00
H32    H     0.17900   0.90240   0.41820   0.01267  Uiso   1.00
H33    H     0.23090   0.02370   0.47600   0.01267  Uiso   1.00
H34    H     0.19110   0.39680   0.46760   0.01267  Uiso   1.00
H35    H     0.82580   0.75510   0.24070   0.01267  Uiso   1.00
H36    H     0.71170   0.47490   0.35370   0.01267  Uiso   1.00
H37    H     0.41820   0.17900   0.90240   0.01267  Uiso   1.00
H38    H     0.47600   0.23090   0.02370   0.01267  Uiso   1.00
H39    H     0.46760   0.19110   0.39680   0.01267  Uiso   1.00
H40    H     0.24070   0.82580   0.75510   0.01267  Uiso   1.00
H41    H     0.35370   0.71170   0.47490   0.01267  Uiso   1.00
H42    H     0.90240   0.41820   0.17900   0.01267  Uiso   1.00
H43    H     0.02370   0.47600   0.23090   0.01267  Uiso   1.00
H44    H     0.39680   0.46760   0.19110   0.01267  Uiso   1.00
H45    H     0.75510   0.24070   0.82580   0.01267  Uiso   1.00
H46    H     0.64630   0.52510   0.28830   0.01267  Uiso   1.00
H47    H     0.09760   0.82100   0.58180   0.01267  Uiso   1.00
H48    H     0.97630   0.76910   0.52400   0.01267  Uiso   1.00
H49    H     0.60320   0.80890   0.53240   0.01267  Uiso   1.00
H50    H     0.24490   0.17420   0.75930   0.01267  Uiso   1.00
H51    H     0.52510   0.28830   0.64630   0.01267  Uiso   1.00
H52    H     0.82100   0.58180   0.09760   0.01267  Uiso   1.00
H53    H     0.76910   0.52400   0.97630   0.01267  Uiso   1.00
H54    H     0.80890   0.53240   0.60320   0.01267  Uiso   1.00
H55    H     0.17420   0.75930   0.24490   0.01267  Uiso   1.00
H56    H     0.28830   0.64630   0.52510   0.01267  Uiso   1.00
H57    H     0.58180   0.09760   0.82100   0.01267  Uiso   1.00
H58    H     0.52400   0.97630   0.76910   0.01267  Uiso   1.00
H59    H     0.53240   0.60320   0.80890   0.01267  Uiso   1.00
H60    H     0.75930   0.24490   0.17420   0.01267  Uiso   1.00
C1     C     0.92000   0.02290   0.59593   0.01267  Uiso   1.00
C2     C     0.59233   0.80276   0.32351   0.01267  Uiso   1.00
C3     C     0.59593   0.92000   0.02290   0.01267  Uiso   1.00
C4     C     0.32351   0.59233   0.80276   0.01267  Uiso   1.00
C5     C     0.02290   0.59593   0.92000   0.01267  Uiso   1.00
C6     C     0.80276   0.32351   0.59233   0.01267  Uiso   1.00
C7     C     0.97710   0.08000   0.40407   0.01267  Uiso   1.00
C8     C     0.19724   0.40767   0.67649   0.01267  Uiso   1.00
C9     C     0.08000   0.40407   0.97710   0.01267  Uiso   1.00
C10    C     0.40767   0.67649   0.19724   0.01267  Uiso   1.00
C11    C     0.40407   0.97710   0.08000   0.01267  Uiso   1.00
C12    C     0.67649   0.19724   0.40767   0.01267  Uiso   1.00
C13    C     0.08000   0.97710   0.40407   0.01267  Uiso   1.00
C14    C     0.40767   0.19724   0.67649   0.01267  Uiso   1.00
C15    C     0.40407   0.08000   0.97710   0.01267  Uiso   1.00
C16    C     0.67649   0.40767   0.19724   0.01267  Uiso   1.00
C17    C     0.97710   0.40407   0.08000   0.01267  Uiso   1.00
C18    C     0.19724   0.67649   0.40767   0.01267  Uiso   1.00
C19    C     0.02290   0.92000   0.59593   0.01267  Uiso   1.00
C20    C     0.80276   0.59233   0.32351   0.01267  Uiso   1.00
C21    C     0.92000   0.59593   0.02290   0.01267  Uiso   1.00
C22    C     0.59233   0.32351   0.80276   0.01267  Uiso   1.00
C23    C     0.59593   0.02290   0.92000   0.01267  Uiso   1.00
C24    C     0.32351   0.80276   0.59233   0.01267  Uiso   1.00
C25    C     0.09642   0.09642   0.68197   0.01267  Uiso   1.00
C26    C     0.68197   0.09642   0.09642   0.01267  Uiso   1.00
C27    C     0.09642   0.68197   0.09642   0.01267  Uiso   1.00
C28    C     0.90358   0.90358   0.31803   0.01267  Uiso   1.00
C29    C     0.90358   0.31803   0.90358   0.01267  Uiso   1.00
C30    C     0.31803   0.90358   0.90358   0.01267  Uiso   1.00
C31    C     0.50000   0.70475   0.29525   0.01267  Uiso   1.00
C32    C     0.29525   0.50000   0.70475   0.01267  Uiso   1.00
C33    C     0.70475   0.29525   0.50000   0.01267  Uiso   1.00
C34    C     0.50000   0.29525   0.70475   0.01267  Uiso   1.00
C35    C     0.70475   0.50000   0.29525   0.01267  Uiso   1.00
C36    C     0.29525   0.70475   0.50000   0.01267  Uiso   1.00
C37    C     0.71770   0.61430   0.61430   0.01267  Uiso   1.00
C38    C     0.61430   0.71770   0.61430   0.01267  Uiso   1.00
C39    C     0.61430   0.61430   0.71770   0.01267  Uiso   1.00
C40    C     0.38570   0.28230   0.38570   0.01267  Uiso   1.00
C41    C     0.28230   0.38570   0.38570   0.01267  Uiso   1.00
C42    C     0.38570   0.38570   0.28230   0.01267  Uiso   1.00
N1     N     0.82669   0.03337   0.56372   0.01267  Uiso   1.00
N2     N     0.00333   0.11062   0.65510   0.01267  Uiso   1.00
N3     N     0.56372   0.82669   0.03337   0.01267  Uiso   1.00
N4     N     0.65510   0.00333   0.11062   0.01267  Uiso   1.00
N5     N     0.03337   0.56372   0.82669   0.01267  Uiso   1.00
N6     N     0.11062   0.65510   0.00333   0.01267  Uiso   1.00
N7     N     0.96663   0.17331   0.43628   0.01267  Uiso   1.00
N8     N     0.88938   0.99667   0.34490   0.01267  Uiso   1.00
N9     N     0.17331   0.43628   0.96663   0.01267  Uiso   1.00
N10    N     0.99667   0.34490   0.88938   0.01267  Uiso   1.00
N11    N     0.43628   0.96663   0.17331   0.01267  Uiso   1.00
N12    N     0.34490   0.88938   0.99667   0.01267  Uiso   1.00
N13    N     0.17331   0.96663   0.43628   0.01267  Uiso   1.00
N14    N     0.99667   0.88938   0.34490   0.01267  Uiso   1.00
N15    N     0.43628   0.17331   0.96663   0.01267  Uiso   1.00
N16    N     0.34490   0.99667   0.88938   0.01267  Uiso   1.00
N17    N     0.96663   0.43628   0.17331   0.01267  Uiso   1.00
N18    N     0.88938   0.34490   0.99667   0.01267  Uiso   1.00
N19    N     0.03337   0.82669   0.56372   0.01267  Uiso   1.00
N20    N     0.11062   0.00333   0.65510   0.01267  Uiso   1.00
N21    N     0.82669   0.56372   0.03337   0.01267  Uiso   1.00
N22    N     0.00333   0.65510   0.11062   0.01267  Uiso   1.00
N23    N     0.56372   0.03337   0.82669   0.01267  Uiso   1.00
N24    N     0.65510   0.11062   0.00333   0.01267  Uiso   1.00
N25    N     0.92562   0.92562   0.56697   0.01267  Uiso   1.00
N26    N     0.68435   0.68435   0.57700   0.01267  Uiso   1.00
N27    N     0.18087   0.18087   0.73987   0.01267  Uiso   1.00
N28    N     0.56697   0.92562   0.92562   0.01267  Uiso   1.00
N29    N     0.57700   0.68435   0.68435   0.01267  Uiso   1.00
N30    N     0.73987   0.18087   0.18087   0.01267  Uiso   1.00
N31    N     0.92562   0.56697   0.92562   0.01267  Uiso   1.00
N32    N     0.68435   0.57700   0.68435   0.01267  Uiso   1.00
N33    N     0.18087   0.73987   0.18087   0.01267  Uiso   1.00
N34    N     0.07438   0.07438   0.43303   0.01267  Uiso   1.00
N35    N     0.31565   0.31565   0.42300   0.01267  Uiso   1.00
N36    N     0.81913   0.81913   0.26013   0.01267  Uiso   1.00
N37    N     0.07438   0.43303   0.07438   0.01267  Uiso   1.00
N38    N     0.31565   0.42300   0.31565   0.01267  Uiso   1.00
N39    N     0.81913   0.26013   0.81913   0.01267  Uiso   1.00
N40    N     0.43303   0.07438   0.07438   0.01267  Uiso   1.00
N41    N     0.42300   0.31565   0.31565   0.01267  Uiso   1.00
N42    N     0.26013   0.81913   0.81913   0.01267  Uiso   1.00
N43    N     0.78570   0.57985   0.57985   0.01267  Uiso   1.00
N44    N     0.57985   0.78570   0.57985   0.01267  Uiso   1.00
N45    N     0.57985   0.57985   0.78570   0.01267  Uiso   1.00
N46    N     0.42015   0.21430   0.42015   0.01267  Uiso   1.00
N47    N     0.21430   0.42015   0.42015   0.01267  Uiso   1.00
N48    N     0.42015   0.42015   0.21430   0.01267  Uiso   1.00
O1     O     0.64533   0.84795   0.41846   0.01267  Uiso   1.00
O2     O     0.61162   0.82964   0.25094   0.01267  Uiso   1.00
O3     O     0.41846   0.64533   0.84795   0.01267  Uiso   1.00
O4     O     0.25094   0.61162   0.82964   0.01267  Uiso   1.00
O5     O     0.84795   0.41846   0.64533   0.01267  Uiso   1.00
O6     O     0.82964   0.25094   0.61162   0.01267  Uiso   1.00
O7     O     0.15205   0.35467   0.58154   0.01267  Uiso   1.00
O8     O     0.17036   0.38838   0.74906   0.01267  Uiso   1.00
O9     O     0.35467   0.58154   0.15205   0.01267  Uiso   1.00
O10    O     0.38838   0.74906   0.17036   0.01267  Uiso   1.00
O11    O     0.58154   0.15205   0.35467   0.01267  Uiso   1.00
O12    O     0.74906   0.17036   0.38838   0.01267  Uiso   1.00
O13    O     0.35467   0.15205   0.58154   0.01267  Uiso   1.00
O14    O     0.38838   0.17036   0.74906   0.01267  Uiso   1.00
O15    O     0.58154   0.35467   0.15205   0.01267  Uiso   1.00
O16    O     0.74906   0.38838   0.17036   0.01267  Uiso   1.00
O17    O     0.15205   0.58154   0.35467   0.01267  Uiso   1.00
O18    O     0.17036   0.74906   0.38838   0.01267  Uiso   1.00
O19    O     0.84795   0.64533   0.41846   0.01267  Uiso   1.00
O20    O     0.82964   0.61162   0.25094   0.01267  Uiso   1.00
O21    O     0.64533   0.41846   0.84795   0.01267  Uiso   1.00
O22    O     0.61162   0.25094   0.82964   0.01267  Uiso   1.00
O23    O     0.41846   0.84795   0.64533   0.01267  Uiso   1.00
O24    O     0.25094   0.82964   0.61162   0.01267  Uiso   1.00
