data_IFENOY03_clean
_audit_creation_date              2014-07-02
_audit_creation_method            'Materials Studio'
_symmetry_space_group_name_H-M    'P1'
_symmetry_Int_Tables_number       1
_symmetry_cell_setting            triclinic
loop_
_symmetry_equiv_pos_as_xyz
  x,y,z
_cell_length_a                    5.3287
_cell_length_b                    18.8824
_cell_length_c                    18.8824
_cell_angle_alpha                 88.8592
_cell_angle_beta                  81.8886
_cell_angle_gamma                 81.8884
loop_
_atom_site_label
_atom_site_type_symbol
_atom_site_fract_x
_atom_site_fract_y
_atom_site_fract_z
_atom_site_U_iso_or_equiv
_atom_site_adp_type
_atom_site_occupancy
Zn1    Zn    0.95250   0.98867   0.44114   0.01267  Uiso   1.00
Zn2    Zn    0.38230   0.01133   0.55886   0.01267  Uiso   1.00
Zn3    Zn    0.60637   0.44113   0.01133   0.01267  Uiso   1.00
Zn4    Zn    0.05883   0.55887   0.98867   0.01267  Uiso   1.00
H1     H     0.96240   0.67450   0.33850   0.01267  Uiso   1.00
H2     H     0.59410   0.86660   0.49200   0.01267  Uiso   1.00
H3     H     0.27320   0.79260   0.54680   0.01267  Uiso   1.00
H4     H     0.65300   0.60050   0.40070   0.01267  Uiso   1.00
H5     H     0.31160   0.58960   0.48560   0.01267  Uiso   1.00
H6     H     0.27730   0.90250   0.31170   0.01267  Uiso   1.00
H7     H     0.11240   0.68620   0.55640   0.01267  Uiso   1.00
H8     H     0.40760   0.67400   0.29720   0.01267  Uiso   1.00
H9     H     0.62680   0.61880   0.19100   0.01267  Uiso   1.00
H10    H     0.26920   0.85350   0.18930   0.01267  Uiso   1.00
H11    H     0.55430   0.81050   0.09550   0.01267  Uiso   1.00
H12    H     0.97540   0.32550   0.66150   0.01267  Uiso   1.00
H13    H     0.95270   0.13340   0.50800   0.01267  Uiso   1.00
H14    H     0.61260   0.20740   0.45320   0.01267  Uiso   1.00
H15    H     0.65420   0.39950   0.59930   0.01267  Uiso   1.00
H16    H     0.38680   0.41040   0.51440   0.01267  Uiso   1.00
H17    H     0.49150   0.09750   0.68830   0.01267  Uiso   1.00
H18    H     0.35500   0.31380   0.44360   0.01267  Uiso   1.00
H19    H     0.37880   0.32600   0.70280   0.01267  Uiso   1.00
H20    H     0.43660   0.38120   0.80900   0.01267  Uiso   1.00
H21    H     0.31200   0.14650   0.81070   0.01267  Uiso   1.00
H22    H     0.46030   0.18950   0.90450   0.01267  Uiso   1.00
H23    H     0.69910   0.33850   0.32550   0.01267  Uiso   1.00
H24    H     0.91390   0.49200   0.13340   0.01267  Uiso   1.00
H25    H     0.18000   0.54680   0.20740   0.01267  Uiso   1.00
H26    H     0.94630   0.40070   0.39950   0.01267  Uiso   1.00
H27    H     0.20280   0.48560   0.41040   0.01267  Uiso   1.00
H28    H     0.41100   0.31170   0.09750   0.01267  Uiso   1.00
H29    H     0.33120   0.55640   0.31380   0.01267  Uiso   1.00
H30    H     0.29520   0.29720   0.32600   0.01267  Uiso   1.00
H31    H     0.18220   0.19100   0.38120   0.01267  Uiso   1.00
H32    H     0.54150   0.18930   0.14650   0.01267  Uiso   1.00
H33    H     0.35020   0.09550   0.18950   0.01267  Uiso   1.00
H34    H     0.36310   0.66150   0.67450   0.01267  Uiso   1.00
H35    H     0.53930   0.50800   0.86660   0.01267  Uiso   1.00
H36    H     0.93420   0.45320   0.79260   0.01267  Uiso   1.00
H37    H     0.74650   0.59930   0.60050   0.01267  Uiso   1.00
H38    H     0.09880   0.51440   0.58960   0.01267  Uiso   1.00
H39    H     0.82020   0.68830   0.90250   0.01267  Uiso   1.00
H40    H     0.20140   0.44360   0.68620   0.01267  Uiso   1.00
H41    H     0.91840   0.70280   0.67400   0.01267  Uiso   1.00
H42    H     0.75440   0.80900   0.61880   0.01267  Uiso   1.00
H43    H     0.87730   0.81070   0.85350   0.01267  Uiso   1.00
H44    H     0.63520   0.90450   0.81050   0.01267  Uiso   1.00
C1     C     0.31511   0.76992   0.25306   0.01267  Uiso   1.00
C2     C     0.88722   0.71264   0.36812   0.01267  Uiso   1.00
C3     C     0.97623   0.77787   0.36107   0.01267  Uiso   1.00
C4     C     0.56960   0.76283   0.46837   0.01267  Uiso   1.00
C5     C     0.68050   0.70544   0.42116   0.01267  Uiso   1.00
C6     C     0.66605   0.82839   0.46191   0.01267  Uiso   1.00
C7     C     0.87220   0.83467   0.40933   0.01267  Uiso   1.00
C8     C     0.35260   0.75440   0.51760   0.01267  Uiso   1.00
C9     C     0.57910   0.63940   0.42960   0.01267  Uiso   1.00
C10    C     0.37450   0.63320   0.48000   0.01267  Uiso   1.00
C11    C     0.16828   0.87262   0.33542   0.01267  Uiso   1.00
C12    C     0.25640   0.69090   0.52350   0.01267  Uiso   1.00
C13    C     0.42360   0.70000   0.25480   0.01267  Uiso   1.00
C14    C     0.59753   0.70387   0.13387   0.01267  Uiso   1.00
C15    C     0.56190   0.66720   0.19100   0.01267  Uiso   1.00
C16    C     0.35480   0.80720   0.19120   0.01267  Uiso   1.00
C17    C     0.50630   0.78140   0.13400   0.01267  Uiso   1.00
C18    C     0.73380   0.67330   0.06510   0.01267  Uiso   1.00
C19    C     0.33809   0.23008   0.74694   0.01267  Uiso   1.00
C20    C     0.96798   0.28736   0.63188   0.01267  Uiso   1.00
C21    C     0.11517   0.22213   0.63893   0.01267  Uiso   1.00
C22    C     0.80080   0.23717   0.53163   0.01267  Uiso   1.00
C23    C     0.80710   0.29456   0.57884   0.01267  Uiso   1.00
C24    C     0.95635   0.17161   0.53809   0.01267  Uiso   1.00
C25    C     0.11620   0.16533   0.59067   0.01267  Uiso   1.00
C26    C     0.62460   0.24560   0.48240   0.01267  Uiso   1.00
C27    C     0.64810   0.36060   0.57040   0.01267  Uiso   1.00
C28    C     0.48770   0.36680   0.52000   0.01267  Uiso   1.00
C29    C     0.37632   0.12738   0.66458   0.01267  Uiso   1.00
C30    C     0.47080   0.30910   0.47650   0.01267  Uiso   1.00
C31    C     0.37840   0.30000   0.74520   0.01267  Uiso   1.00
C32    C     0.43527   0.29613   0.86613   0.01267  Uiso   1.00
C33    C     0.42010   0.33280   0.80900   0.01267  Uiso   1.00
C34    C     0.35320   0.19280   0.80880   0.01267  Uiso   1.00
C35    C     0.42170   0.21860   0.86600   0.01267  Uiso   1.00
C36    C     0.47220   0.32670   0.93490   0.01267  Uiso   1.00
C37    C     0.43183   0.25306   0.23008   0.01267  Uiso   1.00
C38    C     0.74466   0.36812   0.28736   0.01267  Uiso   1.00
C39    C     0.66270   0.36107   0.22213   0.01267  Uiso   1.00
C40    C     0.96203   0.46837   0.23717   0.01267  Uiso   1.00
C41    C     0.89834   0.42116   0.29456   0.01267  Uiso   1.00
C42    C     0.87204   0.46191   0.17161   0.01267  Uiso   1.00
C43    C     0.71847   0.40933   0.16533   0.01267  Uiso   1.00
C44    C     0.12980   0.51760   0.24560   0.01267  Uiso   1.00
C45    C     0.99130   0.42960   0.36060   0.01267  Uiso   1.00
C46    C     0.14550   0.48000   0.36680   0.01267  Uiso   1.00
C47    C     0.49630   0.33542   0.12738   0.01267  Uiso   1.00
C48    C     0.22010   0.52350   0.30910   0.01267  Uiso   1.00
C49    C     0.32160   0.25480   0.30000   0.01267  Uiso   1.00
C50    C     0.26860   0.13387   0.29613   0.01267  Uiso   1.00
C51    C     0.24710   0.19100   0.33280   0.01267  Uiso   1.00
C52    C     0.45400   0.19120   0.19280   0.01267  Uiso   1.00
C53    C     0.35970   0.13400   0.21860   0.01267  Uiso   1.00
C54    C     0.20110   0.06510   0.32670   0.01267  Uiso   1.00
C55    C     0.91497   0.74694   0.76992   0.01267  Uiso   1.00
C56    C     0.40014   0.63188   0.71264   0.01267  Uiso   1.00
C57    C     0.24590   0.63893   0.77787   0.01267  Uiso   1.00
C58    C     0.66757   0.53163   0.76283   0.01267  Uiso   1.00
C59    C     0.61406   0.57884   0.70544   0.01267  Uiso   1.00
C60    C     0.50556   0.53809   0.82839   0.01267  Uiso   1.00
C61    C     0.29313   0.59067   0.83467   0.01267  Uiso   1.00
C62    C     0.89300   0.48240   0.75440   0.01267  Uiso   1.00
C63    C     0.78150   0.57040   0.63940   0.01267  Uiso   1.00
C64    C     0.99230   0.52000   0.63320   0.01267  Uiso   1.00
C65    C     0.95910   0.66458   0.87262   0.01267  Uiso   1.00
C66    C     0.05270   0.47650   0.69090   0.01267  Uiso   1.00
C67    C     0.87640   0.74520   0.70000   0.01267  Uiso   1.00
C68    C     0.69860   0.86613   0.70387   0.01267  Uiso   1.00
C69    C     0.77090   0.80900   0.66720   0.01267  Uiso   1.00
C70    C     0.83800   0.80880   0.80720   0.01267  Uiso   1.00
C71    C     0.71230   0.86600   0.78140   0.01267  Uiso   1.00
C72    C     0.59290   0.93490   0.67330   0.01267  Uiso   1.00
N1     N     0.00221   0.89192   0.39086   0.01267  Uiso   1.00
N2     N     0.16553   0.80400   0.31574   0.01267  Uiso   1.00
N3     N     0.28499   0.10808   0.60914   0.01267  Uiso   1.00
N4     N     0.28527   0.19600   0.68426   0.01267  Uiso   1.00
N5     N     0.60693   0.39086   0.10808   0.01267  Uiso   1.00
N6     N     0.51873   0.31574   0.19600   0.01267  Uiso   1.00
N7     N     0.10587   0.60914   0.89192   0.01267  Uiso   1.00
N8     N     0.03047   0.68426   0.80400   0.01267  Uiso   1.00
O1     O     0.59762   0.02220   0.47016   0.01267  Uiso   1.00
O2     O     0.80486   0.61063   0.05905   0.01267  Uiso   1.00
O3     O     0.82410   0.70260   0.01320   0.01267  Uiso   1.00
O4     O     0.08998   0.97780   0.52984   0.01267  Uiso   1.00
O5     O     0.47454   0.38937   0.94095   0.01267  Uiso   1.00
O6     O     0.53990   0.29740   0.98680   0.01267  Uiso   1.00
O7     O     0.93222   0.47016   0.97780   0.01267  Uiso   1.00
O8     O     0.13609   0.05905   0.38937   0.01267  Uiso   1.00
O9     O     0.16270   0.01320   0.29740   0.01267  Uiso   1.00
O10    O     0.38018   0.52984   0.02220   0.01267  Uiso   1.00
O11    O     0.58451   0.94095   0.61063   0.01267  Uiso   1.00
O12    O     0.47330   0.98680   0.70260   0.01267  Uiso   1.00
