data_IFEPUG_clean
_audit_creation_date              2014-07-02
_audit_creation_method            'Materials Studio'
_symmetry_space_group_name_H-M    'P1'
_symmetry_Int_Tables_number       1
_symmetry_cell_setting            triclinic
loop_
_symmetry_equiv_pos_as_xyz
  x,y,z
_cell_length_a                    5.0662
_cell_length_b                    19.0994
_cell_length_c                    19.0994
_cell_angle_alpha                 88.9921
_cell_angle_beta                  82.3786
_cell_angle_gamma                 82.3786
loop_
_atom_site_label
_atom_site_type_symbol
_atom_site_fract_x
_atom_site_fract_y
_atom_site_fract_z
_atom_site_U_iso_or_equiv
_atom_site_adp_type
_atom_site_occupancy
Zn1    Zn    0.52093   0.98386   0.55770   0.01267  Uiso   1.00
Zn2    Zn    0.06249   0.01614   0.44230   0.01267  Uiso   1.00
Zn3    Zn    0.92137   0.55770   0.01614   0.01267  Uiso   1.00
Zn4    Zn    0.49521   0.44230   0.98386   0.01267  Uiso   1.00
H1     H     0.26580   0.89890   0.68570   0.01267  Uiso   1.00
H2     H     0.02210   0.86750   0.50730   0.01267  Uiso   1.00
H3     H     0.43450   0.79420   0.44940   0.01267  Uiso   1.00
H4     H     0.72370   0.68830   0.43990   0.01267  Uiso   1.00
H5     H     0.62310   0.59190   0.51330   0.01267  Uiso   1.00
H6     H     0.25290   0.60200   0.59720   0.01267  Uiso   1.00
H7     H     0.85210   0.67550   0.66210   0.01267  Uiso   1.00
H8     H     0.00830   0.81520   0.73980   0.01267  Uiso   1.00
H9     H     0.80660   0.75860   0.83960   0.01267  Uiso   1.00
H10    H     0.52990   0.65490   0.87010   0.01267  Uiso   1.00
H11    H     0.73290   0.71370   0.77290   0.01267  Uiso   1.00
H12    H     0.85040   0.10110   0.31430   0.01267  Uiso   1.00
H13    H     0.39690   0.13250   0.49270   0.01267  Uiso   1.00
H14    H     0.67810   0.20580   0.55060   0.01267  Uiso   1.00
H15    H     0.85190   0.31170   0.56010   0.01267  Uiso   1.00
H16    H     0.72830   0.40810   0.48670   0.01267  Uiso   1.00
H17    H     0.45210   0.39800   0.40280   0.01267  Uiso   1.00
H18    H     0.18970   0.32450   0.33790   0.01267  Uiso   1.00
H19    H     0.56330   0.18480   0.26020   0.01267  Uiso   1.00
H20    H     0.40480   0.24140   0.16040   0.01267  Uiso   1.00
H21    H     0.05490   0.34510   0.12990   0.01267  Uiso   1.00
H22    H     0.21950   0.28630   0.22710   0.01267  Uiso   1.00
H23    H     0.04850   0.68570   0.10110   0.01267  Uiso   1.00
H24    H     0.47060   0.50730   0.13250   0.01267  Uiso   1.00
H25    H     0.11610   0.44940   0.20580   0.01267  Uiso   1.00
H26    H     0.83640   0.43990   0.31170   0.01267  Uiso   1.00
H27    H     0.86360   0.51330   0.40810   0.01267  Uiso   1.00
H28    H     0.14990   0.59720   0.39800   0.01267  Uiso   1.00
H29    H     0.48580   0.66210   0.32450   0.01267  Uiso   1.00
H30    H     0.25190   0.73980   0.18480   0.01267  Uiso   1.00
H31    H     0.35380   0.83960   0.24140   0.01267  Uiso   1.00
H32    H     0.60000   0.87010   0.34510   0.01267  Uiso   1.00
H33    H     0.49420   0.77290   0.28630   0.01267  Uiso   1.00
H34    H     0.83530   0.31430   0.89890   0.01267  Uiso   1.00
H35    H     0.11040   0.49270   0.86750   0.01267  Uiso   1.00
H36    H     0.77130   0.55060   0.79420   0.01267  Uiso   1.00
H37    H     0.58800   0.56010   0.68830   0.01267  Uiso   1.00
H38    H     0.78500   0.48670   0.59190   0.01267  Uiso   1.00
H39    H     0.14510   0.40280   0.60200   0.01267  Uiso   1.00
H40    H     0.47240   0.33790   0.67550   0.01267  Uiso   1.00
H41    H     0.17650   0.26020   0.81520   0.01267  Uiso   1.00
H42    H     0.43480   0.16040   0.75860   0.01267  Uiso   1.00
H43    H     0.81520   0.12990   0.65490   0.01267  Uiso   1.00
H44    H     0.55340   0.22710   0.71370   0.01267  Uiso   1.00
C1     C     0.41807   0.86991   0.66255   0.01267  Uiso   1.00
C2     C     0.77364   0.83368   0.58984   0.01267  Uiso   1.00
C3     C     0.99050   0.82883   0.53777   0.01267  Uiso   1.00
C4     C     0.16458   0.76449   0.53115   0.01267  Uiso   1.00
C5     C     0.39614   0.75596   0.47996   0.01267  Uiso   1.00
C6     C     0.56724   0.69293   0.47379   0.01267  Uiso   1.00
C7     C     0.50750   0.63546   0.51834   0.01267  Uiso   1.00
C8     C     0.28827   0.64136   0.56810   0.01267  Uiso   1.00
C9     C     0.10950   0.70617   0.57743   0.01267  Uiso   1.00
C10    C     0.88846   0.71340   0.63088   0.01267  Uiso   1.00
C11    C     0.72670   0.77741   0.63639   0.01267  Uiso   1.00
C12    C     0.38179   0.76956   0.74566   0.01267  Uiso   1.00
C13    C     0.16321   0.70571   0.86667   0.01267  Uiso   1.00
C14    C     0.03451   0.67090   0.93128   0.01267  Uiso   1.00
C15    C     0.11600   0.78320   0.76620   0.01267  Uiso   1.00
C16    C     0.99560   0.75070   0.82630   0.01267  Uiso   1.00
C17    C     0.42510   0.68920   0.84520   0.01267  Uiso   1.00
C18    C     0.54400   0.72240   0.78620   0.01267  Uiso   1.00
C19    C     0.95053   0.13009   0.33745   0.01267  Uiso   1.00
C20    C     0.19716   0.16632   0.41016   0.01267  Uiso   1.00
C21    C     0.35710   0.17117   0.46223   0.01267  Uiso   1.00
C22    C     0.46022   0.23551   0.46885   0.01267  Uiso   1.00
C23    C     0.63206   0.24404   0.52004   0.01267  Uiso   1.00
C24    C     0.73396   0.30707   0.52621   0.01267  Uiso   1.00
C25    C     0.66130   0.36454   0.48166   0.01267  Uiso   1.00
C26    C     0.49773   0.35864   0.43190   0.01267  Uiso   1.00
C27    C     0.39310   0.29383   0.42257   0.01267  Uiso   1.00
C28    C     0.23274   0.28660   0.36912   0.01267  Uiso   1.00
C29    C     0.14050   0.22259   0.36361   0.01267  Uiso   1.00
C30    C     0.89701   0.23044   0.25434   0.01267  Uiso   1.00
C31    C     0.73559   0.29429   0.13333   0.01267  Uiso   1.00
C32    C     0.63669   0.32910   0.06872   0.01267  Uiso   1.00
C33    C     0.66540   0.21680   0.23380   0.01267  Uiso   1.00
C34    C     0.57260   0.24930   0.17370   0.01267  Uiso   1.00
C35    C     0.95950   0.31080   0.15480   0.01267  Uiso   1.00
C36    C     0.05260   0.27760   0.21380   0.01267  Uiso   1.00
C37    C     0.91938   0.66255   0.13009   0.01267  Uiso   1.00
C38    C     0.63652   0.58984   0.16632   0.01267  Uiso   1.00
C39    C     0.47173   0.53777   0.17117   0.01267  Uiso   1.00
C40    C     0.30427   0.53115   0.23551   0.01267  Uiso   1.00
C41    C     0.12390   0.47996   0.24404   0.01267  Uiso   1.00
C42    C     0.95897   0.47379   0.30707   0.01267  Uiso   1.00
C43    C     0.97416   0.51834   0.36454   0.01267  Uiso   1.00
C44    C     0.14363   0.56810   0.35864   0.01267  Uiso   1.00
C45    C     0.31307   0.57743   0.29383   0.01267  Uiso   1.00
C46    C     0.48066   0.63088   0.28660   0.01267  Uiso   1.00
C47    C     0.63691   0.63639   0.22259   0.01267  Uiso   1.00
C48    C     0.87255   0.74566   0.23044   0.01267  Uiso   1.00
C49    C     0.97012   0.86667   0.29429   0.01267  Uiso   1.00
C50    C     0.03421   0.93128   0.32910   0.01267  Uiso   1.00
C51    C     0.11780   0.76620   0.21680   0.01267  Uiso   1.00
C52    C     0.17810   0.82630   0.24930   0.01267  Uiso   1.00
C53    C     0.72970   0.84520   0.31080   0.01267  Uiso   1.00
C54    C     0.66980   0.78620   0.27760   0.01267  Uiso   1.00
C55    C     0.71202   0.33745   0.86991   0.01267  Uiso   1.00
C56    C     0.39268   0.41016   0.83368   0.01267  Uiso   1.00
C57    C     0.18067   0.46223   0.82883   0.01267  Uiso   1.00
C58    C     0.07093   0.46885   0.76449   0.01267  Uiso   1.00
C59    C     0.84790   0.52004   0.75596   0.01267  Uiso   1.00
C60    C     0.73983   0.52621   0.69293   0.01267  Uiso   1.00
C61    C     0.85704   0.48166   0.63546   0.01267  Uiso   1.00
C62    C     0.07037   0.43190   0.64136   0.01267  Uiso   1.00
C63    C     0.18433   0.42257   0.70617   0.01267  Uiso   1.00
C64    C     0.39814   0.36912   0.71340   0.01267  Uiso   1.00
C65    C     0.49589   0.36361   0.77741   0.01267  Uiso   1.00
C66    C     0.84865   0.25434   0.76956   0.01267  Uiso   1.00
C67    C     0.13108   0.13333   0.70571   0.01267  Uiso   1.00
C68    C     0.29459   0.06872   0.67090   0.01267  Uiso   1.00
C69    C     0.10080   0.23380   0.78320   0.01267  Uiso   1.00
C70    C     0.25370   0.17370   0.75070   0.01267  Uiso   1.00
C71    C     0.88570   0.15480   0.68920   0.01267  Uiso   1.00
C72    C     0.73360   0.21380   0.72240   0.01267  Uiso   1.00
N1     N     0.57225   0.89063   0.60767   0.01267  Uiso   1.00
N2     N     0.49787   0.80284   0.68302   0.01267  Uiso   1.00
N3     N     0.07055   0.10937   0.39233   0.01267  Uiso   1.00
N4     N     0.98373   0.19716   0.31698   0.01267  Uiso   1.00
N5     N     0.82008   0.60767   0.10937   0.01267  Uiso   1.00
N6     N     0.81911   0.68302   0.19716   0.01267  Uiso   1.00
N7     N     0.53712   0.39233   0.89063   0.01267  Uiso   1.00
N8     N     0.69929   0.31698   0.80284   0.01267  Uiso   1.00
O1     O     0.39505   0.96965   0.46805   0.01267  Uiso   1.00
O2     O     0.14565   0.61211   0.94879   0.01267  Uiso   1.00
O3     O     0.77270   0.68520   0.94820   0.01267  Uiso   1.00
O4     O     0.83275   0.03035   0.53195   0.01267  Uiso   1.00
O5     O     0.70655   0.38789   0.05121   0.01267  Uiso   1.00
O6     O     0.40610   0.31480   0.05180   0.01267  Uiso   1.00
O7     O     0.13690   0.46805   0.03035   0.01267  Uiso   1.00
O8     O     0.90556   0.94879   0.38789   0.01267  Uiso   1.00
O9     O     0.27910   0.94820   0.31480   0.01267  Uiso   1.00
O10    O     0.63530   0.53195   0.96965   0.01267  Uiso   1.00
O11    O     0.24224   0.05121   0.61211   0.01267  Uiso   1.00
O12    O     0.54210   0.05180   0.68520   0.01267  Uiso   1.00
