data_IFEQAN_clean
_audit_creation_date              2014-07-02
_audit_creation_method            'Materials Studio'
_symmetry_space_group_name_H-M    'P1'
_symmetry_Int_Tables_number       1
_symmetry_cell_setting            triclinic
loop_
_symmetry_equiv_pos_as_xyz
  x,y,z
_cell_length_a                    5.0883
_cell_length_b                    19.0595
_cell_length_c                    19.0595
_cell_angle_alpha                 88.9791
_cell_angle_beta                  82.3290
_cell_angle_gamma                 82.3293
loop_
_atom_site_label
_atom_site_type_symbol
_atom_site_fract_x
_atom_site_fract_y
_atom_site_fract_z
_atom_site_U_iso_or_equiv
_atom_site_adp_type
_atom_site_occupancy
Zn1    Zn    0.47040   0.01579   0.44239   0.01267  Uiso   1.00
Zn2    Zn    0.92858   0.98421   0.55761   0.01267  Uiso   1.00
Zn3    Zn    0.08721   0.44239   0.98421   0.01267  Uiso   1.00
Zn4    Zn    0.51381   0.55761   0.01579   0.01267  Uiso   1.00
H1     H     0.73450   0.10060   0.31480   0.01267  Uiso   1.00
H2     H     0.97360   0.13230   0.49170   0.01267  Uiso   1.00
H3     H     0.56070   0.20610   0.54950   0.01267  Uiso   1.00
H4     H     0.28190   0.31320   0.56020   0.01267  Uiso   1.00
H5     H     0.37730   0.40860   0.48460   0.01267  Uiso   1.00
H6     H     0.75250   0.39910   0.40230   0.01267  Uiso   1.00
H7     H     0.14760   0.32550   0.33770   0.01267  Uiso   1.00
H8     H     0.99480   0.18340   0.26040   0.01267  Uiso   1.00
H9     H     0.19790   0.23950   0.16070   0.01267  Uiso   1.00
H10    H     0.47700   0.34350   0.12950   0.01267  Uiso   1.00
H11    H     0.27130   0.28540   0.22600   0.01267  Uiso   1.00
H12    H     0.14990   0.89940   0.68520   0.01267  Uiso   1.00
H13    H     0.59760   0.86770   0.50830   0.01267  Uiso   1.00
H14    H     0.31630   0.79390   0.45050   0.01267  Uiso   1.00
H15    H     0.15530   0.68680   0.43980   0.01267  Uiso   1.00
H16    H     0.27050   0.59140   0.51540   0.01267  Uiso   1.00
H17    H     0.55390   0.60090   0.59770   0.01267  Uiso   1.00
H18    H     0.81080   0.67450   0.66230   0.01267  Uiso   1.00
H19    H     0.43860   0.81660   0.73960   0.01267  Uiso   1.00
H20    H     0.59810   0.76050   0.83930   0.01267  Uiso   1.00
H21    H     0.95000   0.65650   0.87050   0.01267  Uiso   1.00
H22    H     0.78270   0.71460   0.77400   0.01267  Uiso   1.00
H23    H     0.95070   0.31480   0.89940   0.01267  Uiso   1.00
H24    H     0.53470   0.49170   0.86770   0.01267  Uiso   1.00
H25    H     0.88980   0.54950   0.79390   0.01267  Uiso   1.00
H26    H     0.15790   0.56020   0.68680   0.01267  Uiso   1.00
H27    H     0.13810   0.48460   0.59140   0.01267  Uiso   1.00
H28    H     0.84520   0.40230   0.60090   0.01267  Uiso   1.00
H29    H     0.51470   0.33770   0.67450   0.01267  Uiso   1.00
H30    H     0.74480   0.26040   0.81660   0.01267  Uiso   1.00
H31    H     0.64140   0.16070   0.76050   0.01267  Uiso   1.00
H32    H     0.39350   0.12950   0.65650   0.01267  Uiso   1.00
H33    H     0.50270   0.22600   0.71460   0.01267  Uiso   1.00
H34    H     0.16490   0.68520   0.10060   0.01267  Uiso   1.00
H35    H     0.89410   0.50830   0.13230   0.01267  Uiso   1.00
H36    H     0.23320   0.45050   0.20610   0.01267  Uiso   1.00
H37    H     0.40490   0.43980   0.31320   0.01267  Uiso   1.00
H38    H     0.21410   0.51540   0.40860   0.01267  Uiso   1.00
H39    H     0.84840   0.59770   0.39910   0.01267  Uiso   1.00
H40    H     0.52690   0.66230   0.32550   0.01267  Uiso   1.00
H41    H     0.82180   0.73960   0.18340   0.01267  Uiso   1.00
H42    H     0.56260   0.83930   0.23950   0.01267  Uiso   1.00
H43    H     0.17950   0.87050   0.34350   0.01267  Uiso   1.00
H44    H     0.44330   0.77400   0.28540   0.01267  Uiso   1.00
C1     C     0.58147   0.12970   0.33736   0.01267  Uiso   1.00
C2     C     0.22186   0.16643   0.41045   0.01267  Uiso   1.00
C3     C     0.00727   0.17119   0.46147   0.01267  Uiso   1.00
C4     C     0.83634   0.23580   0.46812   0.01267  Uiso   1.00
C5     C     0.60204   0.24453   0.51939   0.01267  Uiso   1.00
C6     C     0.43590   0.30780   0.52560   0.01267  Uiso   1.00
C7     C     0.49443   0.36529   0.48025   0.01267  Uiso   1.00
C8     C     0.71423   0.35946   0.43088   0.01267  Uiso   1.00
C9     C     0.88908   0.29399   0.42145   0.01267  Uiso   1.00
C10    C     0.11057   0.28734   0.36852   0.01267  Uiso   1.00
C11    C     0.27244   0.22308   0.36304   0.01267  Uiso   1.00
C12    C     0.61989   0.23062   0.25440   0.01267  Uiso   1.00
C13    C     0.84618   0.29494   0.13450   0.01267  Uiso   1.00
C14    C     0.97873   0.32943   0.07011   0.01267  Uiso   1.00
C15    C     0.88920   0.21590   0.23390   0.01267  Uiso   1.00
C16    C     0.00990   0.24840   0.17440   0.01267  Uiso   1.00
C17    C     0.58140   0.30990   0.15530   0.01267  Uiso   1.00
C18    C     0.45970   0.27710   0.21350   0.01267  Uiso   1.00
C19    C     0.04853   0.87030   0.66264   0.01267  Uiso   1.00
C20    C     0.79874   0.83357   0.58955   0.01267  Uiso   1.00
C21    C     0.63993   0.82881   0.53853   0.01267  Uiso   1.00
C22    C     0.54026   0.76420   0.53188   0.01267  Uiso   1.00
C23    C     0.36596   0.75547   0.48061   0.01267  Uiso   1.00
C24    C     0.26930   0.69220   0.47440   0.01267  Uiso   1.00
C25    C     0.33997   0.63471   0.51975   0.01267  Uiso   1.00
C26    C     0.50457   0.64054   0.56912   0.01267  Uiso   1.00
C27    C     0.60452   0.70601   0.57855   0.01267  Uiso   1.00
C28    C     0.76643   0.71266   0.63148   0.01267  Uiso   1.00
C29    C     0.85856   0.77692   0.63696   0.01267  Uiso   1.00
C30    C     0.10491   0.76938   0.74560   0.01267  Uiso   1.00
C31    C     0.27562   0.70506   0.86550   0.01267  Uiso   1.00
C32    C     0.37827   0.67057   0.92989   0.01267  Uiso   1.00
C33    C     0.33900   0.78410   0.76610   0.01267  Uiso   1.00
C34    C     0.43270   0.75160   0.82560   0.01267  Uiso   1.00
C35    C     0.04660   0.69010   0.84470   0.01267  Uiso   1.00
C36    C     0.95030   0.72290   0.78650   0.01267  Uiso   1.00
C37    C     0.08117   0.33736   0.87030   0.01267  Uiso   1.00
C38    C     0.36769   0.41045   0.83357   0.01267  Uiso   1.00
C39    C     0.53126   0.46147   0.82881   0.01267  Uiso   1.00
C40    C     0.69554   0.46812   0.76420   0.01267  Uiso   1.00
C41    C     0.87857   0.51939   0.75547   0.01267  Uiso   1.00
C42    C     0.03850   0.52560   0.69220   0.01267  Uiso   1.00
C43    C     0.02532   0.48025   0.63471   0.01267  Uiso   1.00
C44    C     0.85489   0.43088   0.64054   0.01267  Uiso   1.00
C45    C     0.68947   0.42145   0.70601   0.01267  Uiso   1.00
C46    C     0.52091   0.36852   0.71266   0.01267  Uiso   1.00
C47    C     0.36452   0.36304   0.77692   0.01267  Uiso   1.00
C48    C     0.12571   0.25440   0.76938   0.01267  Uiso   1.00
C49    C     0.01932   0.13450   0.70506   0.01267  Uiso   1.00
C50    C     0.95116   0.07011   0.67057   0.01267  Uiso   1.00
C51    C     0.87690   0.23390   0.78410   0.01267  Uiso   1.00
C52    C     0.81570   0.17440   0.75160   0.01267  Uiso   1.00
C53    C     0.26330   0.15530   0.69010   0.01267  Uiso   1.00
C54    C     0.32680   0.21350   0.72290   0.01267  Uiso   1.00
C55    C     0.28883   0.66264   0.12970   0.01267  Uiso   1.00
C56    C     0.61171   0.58955   0.16643   0.01267  Uiso   1.00
C57    C     0.82154   0.53853   0.17119   0.01267  Uiso   1.00
C58    C     0.92786   0.53188   0.23580   0.01267  Uiso   1.00
C59    C     0.15343   0.48061   0.24453   0.01267  Uiso   1.00
C60    C     0.25630   0.47440   0.30780   0.01267  Uiso   1.00
C61    C     0.14028   0.51975   0.36529   0.01267  Uiso   1.00
C62    C     0.92631   0.56912   0.35946   0.01267  Uiso   1.00
C63    C     0.81693   0.57855   0.29399   0.01267  Uiso   1.00
C64    C     0.60209   0.63148   0.28734   0.01267  Uiso   1.00
C65    C     0.50448   0.63696   0.22308   0.01267  Uiso   1.00
C66    C     0.14949   0.74560   0.23062   0.01267  Uiso   1.00
C67    C     0.85888   0.86550   0.29494   0.01267  Uiso   1.00
C68    C     0.69184   0.92989   0.32943   0.01267  Uiso   1.00
C69    C     0.89490   0.76610   0.21590   0.01267  Uiso   1.00
C70    C     0.74170   0.82560   0.24840   0.01267  Uiso   1.00
C71    C     0.10870   0.84470   0.30990   0.01267  Uiso   1.00
C72    C     0.26320   0.78650   0.27710   0.01267  Uiso   1.00
N1     N     0.42452   0.10932   0.39244   0.01267  Uiso   1.00
N2     N     0.50120   0.19662   0.31638   0.01267  Uiso   1.00
N3     N     0.92628   0.89068   0.60756   0.01267  Uiso   1.00
N4     N     0.01420   0.80338   0.68362   0.01267  Uiso   1.00
N5     N     0.18304   0.39244   0.89068   0.01267  Uiso   1.00
N6     N     0.18242   0.31638   0.80338   0.01267  Uiso   1.00
N7     N     0.46616   0.60756   0.10932   0.01267  Uiso   1.00
N8     N     0.30218   0.68362   0.19662   0.01267  Uiso   1.00
O1     O     0.59522   0.02967   0.53229   0.01267  Uiso   1.00
O2     O     0.86356   0.38796   0.05152   0.01267  Uiso   1.00
O3     O     0.23630   0.31330   0.05370   0.01267  Uiso   1.00
O4     O     0.15718   0.97033   0.46771   0.01267  Uiso   1.00
O5     O     0.30304   0.61204   0.94848   0.01267  Uiso   1.00
O6     O     0.60330   0.68670   0.94630   0.01267  Uiso   1.00
O7     O     0.87249   0.53229   0.97033   0.01267  Uiso   1.00
O8     O     0.08492   0.05152   0.61204   0.01267  Uiso   1.00
O9     O     0.71000   0.05370   0.68670   0.01267  Uiso   1.00
O10    O     0.37511   0.46771   0.02967   0.01267  Uiso   1.00
O11    O     0.74848   0.94848   0.38796   0.01267  Uiso   1.00
O12    O     0.45040   0.94630   0.31330   0.01267  Uiso   1.00
