data_IGOCOX_clean
_audit_creation_date              2014-07-02
_audit_creation_method            'Materials Studio'
_symmetry_space_group_name_H-M    'P1'
_symmetry_Int_Tables_number       1
_symmetry_cell_setting            triclinic
loop_
_symmetry_equiv_pos_as_xyz
  x,y,z
_cell_length_a                    15.3421
_cell_length_b                    15.3421
_cell_length_c                    15.3421
_cell_angle_alpha                 60.0000
_cell_angle_beta                  60.0000
_cell_angle_gamma                 60.0000
loop_
_atom_site_label
_atom_site_type_symbol
_atom_site_fract_x
_atom_site_fract_y
_atom_site_fract_z
_atom_site_U_iso_or_equiv
_atom_site_adp_type
_atom_site_occupancy
Zn1    Zn    0.15416   0.15416   0.53752   0.01267  Uiso   1.00
Zn2    Zn    0.15416   0.15416   0.15416   0.01267  Uiso   1.00
Zn3    Zn    0.53752   0.15416   0.15416   0.01267  Uiso   1.00
Zn4    Zn    0.15416   0.53752   0.15416   0.01267  Uiso   1.00
Zn5    Zn    0.84584   0.84584   0.46248   0.01267  Uiso   1.00
Zn6    Zn    0.84584   0.84584   0.84584   0.01267  Uiso   1.00
Zn7    Zn    0.84584   0.46248   0.84584   0.01267  Uiso   1.00
Zn8    Zn    0.46248   0.84584   0.84584   0.01267  Uiso   1.00
Zn9    Zn    0.25000   0.25000   0.25000   0.01267  Uiso   1.00
Zn10   Zn    0.75000   0.75000   0.75000   0.01267  Uiso   1.00
H1     H     0.00000   0.34080   0.65920   0.01267  Uiso   1.00
H2     H     0.34080   0.00000   0.00000   0.01267  Uiso   1.00
H3     H     0.65920  -0.00000   0.00000   0.01267  Uiso   1.00
H4     H     0.00000   0.65920   0.34080   0.01267  Uiso   1.00
H5     H     0.00000   0.65920   0.00000   0.01267  Uiso   1.00
H6     H     0.34080   0.00000   0.65920   0.01267  Uiso   1.00
H7     H     0.65920  -0.00000   0.34080   0.01267  Uiso   1.00
H8     H     0.00000   0.34080  -0.00000   0.01267  Uiso   1.00
H9     H     0.00000   0.00000   0.34080   0.01267  Uiso   1.00
H10    H     0.34080   0.65920   0.00000   0.01267  Uiso   1.00
H11    H     0.65920   0.34080   0.00000   0.01267  Uiso   1.00
H12    H     0.00000   0.00000   0.65920   0.01267  Uiso   1.00
C1     C     0.05360   0.40100   0.49180   0.01267  Uiso   1.00
C2     C     0.40100   0.05360   0.05360   0.01267  Uiso   1.00
C3     C     0.49180   0.05360   0.05360   0.01267  Uiso   1.00
C4     C     0.05360   0.49180   0.40100   0.01267  Uiso   1.00
C5     C     0.05360   0.49180   0.05360   0.01267  Uiso   1.00
C6     C     0.40100   0.05360   0.49180   0.01267  Uiso   1.00
C7     C     0.49180   0.05360   0.40100   0.01267  Uiso   1.00
C8     C     0.05360   0.40100   0.05360   0.01267  Uiso   1.00
C9     C     0.05360   0.05360   0.40100   0.01267  Uiso   1.00
C10    C     0.40100   0.49180   0.05360   0.01267  Uiso   1.00
C11    C     0.49180   0.40100   0.05360   0.01267  Uiso   1.00
C12    C     0.05360   0.05360   0.49180   0.01267  Uiso   1.00
C13    C     0.59900   0.94640   0.50820   0.01267  Uiso   1.00
C14    C     0.94640   0.59900   0.94640   0.01267  Uiso   1.00
C15    C     0.94640   0.50820   0.94640   0.01267  Uiso   1.00
C16    C     0.50820   0.94640   0.59900   0.01267  Uiso   1.00
C17    C     0.50820   0.94640   0.94640   0.01267  Uiso   1.00
C18    C     0.94640   0.59900   0.50820   0.01267  Uiso   1.00
C19    C     0.94640   0.50820   0.59900   0.01267  Uiso   1.00
C20    C     0.59900   0.94640   0.94640   0.01267  Uiso   1.00
C21    C     0.94640   0.94640   0.59900   0.01267  Uiso   1.00
C22    C     0.50820   0.59900   0.94640   0.01267  Uiso   1.00
C23    C     0.59900   0.50820   0.94640   0.01267  Uiso   1.00
C24    C     0.94640   0.94640   0.50820   0.01267  Uiso   1.00
C25    C     0.00000   0.40140   0.59860   0.01267  Uiso   1.00
C26    C     0.40140   0.00000   0.00000   0.01267  Uiso   1.00
C27    C     0.59860  -0.00000  -0.00000   0.01267  Uiso   1.00
C28    C     0.00000   0.59860   0.40140   0.01267  Uiso   1.00
C29    C     0.00000   0.59860   0.00000   0.01267  Uiso   1.00
C30    C     0.40140   0.00000   0.59860   0.01267  Uiso   1.00
C31    C     0.59860  -0.00000   0.40140   0.01267  Uiso   1.00
C32    C     0.00000   0.40140  -0.00000   0.01267  Uiso   1.00
C33    C     0.00000   0.00000   0.40140   0.01267  Uiso   1.00
C34    C     0.40140   0.59860   0.00000   0.01267  Uiso   1.00
C35    C     0.59860   0.40140  -0.00000   0.01267  Uiso   1.00
C36    C     0.00000   0.00000   0.59860   0.01267  Uiso   1.00
N1     N     0.11420   0.31484   0.45676   0.01267  Uiso   1.00
N2     N     0.31484   0.11420   0.11420   0.01267  Uiso   1.00
N3     N     0.45676   0.11420   0.11420   0.01267  Uiso   1.00
N4     N     0.11420   0.45676   0.31484   0.01267  Uiso   1.00
N5     N     0.11420   0.45676   0.11420   0.01267  Uiso   1.00
N6     N     0.31484   0.11420   0.45676   0.01267  Uiso   1.00
N7     N     0.45676   0.11420   0.31484   0.01267  Uiso   1.00
N8     N     0.11420   0.31484   0.11420   0.01267  Uiso   1.00
N9     N     0.11420   0.11420   0.31484   0.01267  Uiso   1.00
N10    N     0.31484   0.45676   0.11420   0.01267  Uiso   1.00
N11    N     0.45676   0.31484   0.11420   0.01267  Uiso   1.00
N12    N     0.11420   0.11420   0.45676   0.01267  Uiso   1.00
N13    N     0.68516   0.88580   0.54324   0.01267  Uiso   1.00
N14    N     0.88580   0.68516   0.88580   0.01267  Uiso   1.00
N15    N     0.88580   0.54324   0.88580   0.01267  Uiso   1.00
N16    N     0.54324   0.88580   0.68516   0.01267  Uiso   1.00
N17    N     0.54324   0.88580   0.88580   0.01267  Uiso   1.00
N18    N     0.88580   0.68516   0.54324   0.01267  Uiso   1.00
N19    N     0.88580   0.54324   0.68516   0.01267  Uiso   1.00
N20    N     0.68516   0.88580   0.88580   0.01267  Uiso   1.00
N21    N     0.88580   0.88580   0.68516   0.01267  Uiso   1.00
N22    N     0.54324   0.68516   0.88580   0.01267  Uiso   1.00
N23    N     0.68516   0.54324   0.88580   0.01267  Uiso   1.00
N24    N     0.88580   0.88580   0.54324   0.01267  Uiso   1.00
N25    N     0.14810   0.35190   0.35190   0.01267  Uiso   1.00
N26    N     0.35190   0.14810   0.14810   0.01267  Uiso   1.00
N27    N     0.14810   0.35190   0.14810   0.01267  Uiso   1.00
N28    N     0.35190   0.14810   0.35190   0.01267  Uiso   1.00
N29    N     0.14810   0.14810   0.35190   0.01267  Uiso   1.00
N30    N     0.35190   0.35190   0.14810   0.01267  Uiso   1.00
N31    N     0.64810   0.85190   0.64810   0.01267  Uiso   1.00
N32    N     0.85190   0.64810   0.85190   0.01267  Uiso   1.00
N33    N     0.64810   0.85190   0.85190   0.01267  Uiso   1.00
N34    N     0.85190   0.64810   0.64810   0.01267  Uiso   1.00
N35    N     0.85190   0.85190   0.64810   0.01267  Uiso   1.00
N36    N     0.64810   0.64810   0.85190   0.01267  Uiso   1.00
Cl1    Cl    0.09812   0.09812   0.70564   0.01267  Uiso   1.00
Cl2    Cl    0.09812   0.09812   0.09812   0.01267  Uiso   1.00
Cl3    Cl    0.70564   0.09812   0.09812   0.01267  Uiso   1.00
Cl4    Cl    0.09812   0.70564   0.09812   0.01267  Uiso   1.00
Cl5    Cl    0.90188   0.90188   0.29436   0.01267  Uiso   1.00
Cl6    Cl    0.90188   0.90188   0.90188   0.01267  Uiso   1.00
Cl7    Cl    0.90188   0.29436   0.90188   0.01267  Uiso   1.00
Cl8    Cl    0.29436   0.90188   0.90188   0.01267  Uiso   1.00
