data_IJASAO01_clean
_audit_creation_date              2014-07-02
_audit_creation_method            'Materials Studio'
_symmetry_space_group_name_H-M    'P1'
_symmetry_Int_Tables_number       1
_symmetry_cell_setting            triclinic
loop_
_symmetry_equiv_pos_as_xyz
  x,y,z
_cell_length_a                    9.4930
_cell_length_b                    13.2250
_cell_length_c                    16.2320
_cell_angle_alpha                 111.7290
_cell_angle_beta                  100.5540
_cell_angle_gamma                 91.8790
loop_
_atom_site_label
_atom_site_type_symbol
_atom_site_fract_x
_atom_site_fract_y
_atom_site_fract_z
_atom_site_U_iso_or_equiv
_atom_site_adp_type
_atom_site_occupancy
Er1    Er    0.91772   0.54389   0.84482   0.01267  Uiso   1.00
Er2    Er    0.08228   0.45611   0.15518   0.01267  Uiso   1.00
H1     H     0.66290   0.74490   0.04040   0.01267  Uiso   1.00
H2     H     0.61200   0.76120   0.13060   0.01267  Uiso   1.00
H3     H     0.75470   0.70850   0.11310   0.01267  Uiso   1.00
H4     H     0.66210   0.27680   0.98830   0.01267  Uiso   1.00
H5     H     0.60530   0.25810   0.88620   0.01267  Uiso   1.00
H6     H     0.75110   0.33110   0.94010   0.01267  Uiso   1.00
H7     H     0.88560   0.82080   0.78810   0.01267  Uiso   1.00
H8     H     0.82100   0.92730   0.78520   0.01267  Uiso   1.00
H9     H     0.98130   0.91150   0.77640   0.01267  Uiso   1.00
H10    H     0.00860   0.78970   0.06970   0.01267  Uiso   1.00
H11    H     0.14180   0.87010   0.13630   0.01267  Uiso   1.00
H12    H     0.98660   0.88880   0.15500   0.01267  Uiso   1.00
H13    H     0.14180   0.67260   0.71160   0.01267  Uiso   1.00
H14    H     0.24430   0.70020   0.65560   0.01267  Uiso   1.00
H15    H     0.09910   0.75270   0.66260   0.01267  Uiso   1.00
H16    H     0.71700   0.36020   0.52050   0.01267  Uiso   1.00
H17    H     0.81240   0.26890   0.47640   0.01267  Uiso   1.00
H18    H     0.84930   0.33630   0.58140   0.01267  Uiso   1.00
H19    H     0.58700   0.62730   0.85140   0.01267  Uiso   1.00
H20    H     0.33870   0.57040   0.80680   0.01267  Uiso   1.00
H21    H     0.26130   0.39340   0.72340   0.01267  Uiso   1.00
H22    H     0.32500   0.19770   0.64660   0.01267  Uiso   1.00
H23    H     0.48590   0.08170   0.61960   0.01267  Uiso   1.00
H24    H     0.74990   0.05370   0.61520   0.01267  Uiso   1.00
H25    H     0.98740   0.12220   0.67070   0.01267  Uiso   1.00
H26    H     0.04470   0.30440   0.76470   0.01267  Uiso   1.00
H27    H     0.33710   0.25510   0.95960   0.01267  Uiso   1.00
H28    H     0.38800   0.23880   0.86940   0.01267  Uiso   1.00
H29    H     0.24530   0.29150   0.88690   0.01267  Uiso   1.00
H30    H     0.33790   0.72320   0.01170   0.01267  Uiso   1.00
H31    H     0.39470   0.74190   0.11380   0.01267  Uiso   1.00
H32    H     0.24890   0.66890   0.05990   0.01267  Uiso   1.00
H33    H     0.11440   0.17920   0.21190   0.01267  Uiso   1.00
H34    H     0.17900   0.07270   0.21480   0.01267  Uiso   1.00
H35    H     0.01870   0.08850   0.22360   0.01267  Uiso   1.00
H36    H     0.99140   0.21030   0.93030   0.01267  Uiso   1.00
H37    H     0.85820   0.12990   0.86370   0.01267  Uiso   1.00
H38    H     0.01340   0.11120   0.84500   0.01267  Uiso   1.00
H39    H     0.85820   0.32740   0.28840   0.01267  Uiso   1.00
H40    H     0.75570   0.29980   0.34440   0.01267  Uiso   1.00
H41    H     0.90090   0.24730   0.33740   0.01267  Uiso   1.00
H42    H     0.28300   0.63980   0.47950   0.01267  Uiso   1.00
H43    H     0.18760   0.73110   0.52360   0.01267  Uiso   1.00
H44    H     0.15070   0.66370   0.41860   0.01267  Uiso   1.00
H45    H     0.41300   0.37270   0.14860   0.01267  Uiso   1.00
H46    H     0.66130   0.42960   0.19320   0.01267  Uiso   1.00
H47    H     0.73870   0.60660   0.27660   0.01267  Uiso   1.00
H48    H     0.67500   0.80230   0.35340   0.01267  Uiso   1.00
H49    H     0.51410   0.91830   0.38040   0.01267  Uiso   1.00
H50    H     0.25010   0.94630   0.38480   0.01267  Uiso   1.00
H51    H     0.01260   0.87780   0.32930   0.01267  Uiso   1.00
H52    H     0.95530   0.69560   0.23530   0.01267  Uiso   1.00
C1     C     0.80900   0.52690   0.03150   0.01267  Uiso   1.00
C2     C     0.64800   0.51420   0.01470   0.01267  Uiso   1.00
C3     C     0.57670   0.60520   0.04180   0.01267  Uiso   1.00
C4     C     0.65870   0.71440   0.08530   0.01267  Uiso   1.00
C5     C     0.57630   0.40860   0.97260   0.01267  Uiso   1.00
C6     C     0.65580   0.30980   0.94430   0.01267  Uiso   1.00
C7     C     0.95640   0.76950   0.91600   0.01267  Uiso   1.00
C8     C     0.97850   0.88870   0.95980   0.01267  Uiso   1.00
C9     C     0.95480   0.95330   0.90630   0.01267  Uiso   1.00
C10    C     0.90630   0.89820   0.80480   0.01267  Uiso   1.00
C11    C     0.02360   0.93710   0.05190   0.01267  Uiso   1.00
C12    C     0.04190   0.86450   0.10860   0.01267  Uiso   1.00
C13    C     0.95930   0.52620   0.67770   0.01267  Uiso   1.00
C14    C     0.97930   0.51160   0.58430   0.01267  Uiso   1.00
C15    C     0.06960   0.59310   0.57540   0.01267  Uiso   1.00
C16    C     0.14550   0.68820   0.65880   0.01267  Uiso   1.00
C17    C     0.90800   0.42200   0.51020   0.01267  Uiso   1.00
C18    C     0.81320   0.33950   0.52330   0.01267  Uiso   1.00
C19    C     0.55600   0.55350   0.81780   0.01267  Uiso   1.00
C20    C     0.40450   0.51980   0.79060   0.01267  Uiso   1.00
C21    C     0.35990   0.41540   0.74210   0.01267  Uiso   1.00
C22    C     0.45620   0.33630   0.71780   0.01267  Uiso   1.00
C23    C     0.42200   0.22480   0.66780   0.01267  Uiso   1.00
C24    C     0.51630   0.15630   0.64890   0.01267  Uiso   1.00
C25    C     0.66930   0.19410   0.67280   0.01267  Uiso   1.00
C26    C     0.77470   0.12730   0.65210   0.01267  Uiso   1.00
C27    C     0.91490   0.16720   0.68470   0.01267  Uiso   1.00
C28    C     0.94790   0.27840   0.74040   0.01267  Uiso   1.00
C29    C     0.71550   0.30330   0.72620   0.01267  Uiso   1.00
C30    C     0.60720   0.37850   0.74850   0.01267  Uiso   1.00
C31    C     0.19100   0.47310   0.96850   0.01267  Uiso   1.00
C32    C     0.35200   0.48580   0.98530   0.01267  Uiso   1.00
C33    C     0.42330   0.39480   0.95820   0.01267  Uiso   1.00
C34    C     0.34130   0.28560   0.91470   0.01267  Uiso   1.00
C35    C     0.42370   0.59140   0.02740   0.01267  Uiso   1.00
C36    C     0.34420   0.69020   0.05570   0.01267  Uiso   1.00
C37    C     0.04360   0.23050   0.08400   0.01267  Uiso   1.00
C38    C     0.02150   0.11130   0.04020   0.01267  Uiso   1.00
C39    C     0.04520   0.04670   0.09370   0.01267  Uiso   1.00
C40    C     0.09370   0.10180   0.19520   0.01267  Uiso   1.00
C41    C     0.97640   0.06290   0.94810   0.01267  Uiso   1.00
C42    C     0.95810   0.13550   0.89140   0.01267  Uiso   1.00
C43    C     0.04070   0.47380   0.32230   0.01267  Uiso   1.00
C44    C     0.02070   0.48840   0.41570   0.01267  Uiso   1.00
C45    C     0.93040   0.40690   0.42460   0.01267  Uiso   1.00
C46    C     0.85450   0.31180   0.34120   0.01267  Uiso   1.00
C47    C     0.09200   0.57800   0.48980   0.01267  Uiso   1.00
C48    C     0.18680   0.66050   0.47670   0.01267  Uiso   1.00
C49    C     0.44400   0.44650   0.18220   0.01267  Uiso   1.00
C50    C     0.59550   0.48020   0.20940   0.01267  Uiso   1.00
C51    C     0.64010   0.58460   0.25790   0.01267  Uiso   1.00
C52    C     0.54380   0.66370   0.28220   0.01267  Uiso   1.00
C53    C     0.57800   0.77520   0.33220   0.01267  Uiso   1.00
C54    C     0.48370   0.84370   0.35110   0.01267  Uiso   1.00
C55    C     0.33070   0.80590   0.32720   0.01267  Uiso   1.00
C56    C     0.22530   0.87270   0.34790   0.01267  Uiso   1.00
C57    C     0.08510   0.83280   0.31530   0.01267  Uiso   1.00
C58    C     0.05210   0.72160   0.25960   0.01267  Uiso   1.00
C59    C     0.28450   0.69670   0.27380   0.01267  Uiso   1.00
C60    C     0.39280   0.62150   0.25150   0.01267  Uiso   1.00
N1     N     0.65320   0.48550   0.79760   0.01267  Uiso   1.00
N2     N     0.85500   0.34750   0.76070   0.01267  Uiso   1.00
N3     N     0.34680   0.51450   0.20240   0.01267  Uiso   1.00
N4     N     0.14500   0.65250   0.23930   0.01267  Uiso   1.00
O1     O     0.86760   0.55070   0.97560   0.01267  Uiso   1.00
O2     O     0.87660   0.51500   0.09860   0.01267  Uiso   1.00
O3     O     0.82740   0.71610   0.89510   0.01267  Uiso   1.00
O4     O     0.05750   0.71240   0.89730   0.01267  Uiso   1.00
O5     O     0.05200   0.49830   0.72770   0.01267  Uiso   1.00
O6     O     0.84760   0.56080   0.70310   0.01267  Uiso   1.00
O7     O     0.13240   0.44930   0.02440   0.01267  Uiso   1.00
O8     O     0.12340   0.48500   0.90140   0.01267  Uiso   1.00
O9     O     0.17260   0.28390   0.10490   0.01267  Uiso   1.00
O10    O     0.94250   0.28760   0.10270   0.01267  Uiso   1.00
O11    O     0.94800   0.50170   0.27230   0.01267  Uiso   1.00
O12    O     0.15240   0.43920   0.29690   0.01267  Uiso   1.00
