data_IJASAO_clean
_audit_creation_date              2014-07-02
_audit_creation_method            'Materials Studio'
_symmetry_space_group_name_H-M    'P1'
_symmetry_Int_Tables_number       1
_symmetry_cell_setting            triclinic
loop_
_symmetry_equiv_pos_as_xyz
  x,y,z
_cell_length_a                    9.4930
_cell_length_b                    13.2250
_cell_length_c                    16.2320
_cell_angle_alpha                 111.7290
_cell_angle_beta                  100.5540
_cell_angle_gamma                 91.8790
loop_
_atom_site_label
_atom_site_type_symbol
_atom_site_fract_x
_atom_site_fract_y
_atom_site_fract_z
_atom_site_U_iso_or_equiv
_atom_site_adp_type
_atom_site_occupancy
Er1    Er    0.91771   0.54391   0.84483   0.01267  Uiso   1.00
Er2    Er    0.08229   0.45609   0.15517   0.01267  Uiso   1.00
H1     H     0.11520   0.68410   0.71200   0.01267  Uiso   1.00
H2     H     0.25030   0.68560   0.66610   0.01267  Uiso   1.00
H3     H     0.12110   0.75640   0.65220   0.01267  Uiso   1.00
H4     H     0.80990   0.36270   0.58730   0.01267  Uiso   1.00
H5     H     0.71690   0.33100   0.48670   0.01267  Uiso   1.00
H6     H     0.85390   0.26840   0.50360   0.01267  Uiso   1.00
H7     H     0.89790   0.81740   0.78600   0.01267  Uiso   1.00
H8     H     0.81140   0.91900   0.78510   0.01267  Uiso   1.00
H9     H     0.97590   0.91930   0.77480   0.01267  Uiso   1.00
H10    H     0.02430   0.78800   0.06890   0.01267  Uiso   1.00
H11    H     0.14040   0.88110   0.14590   0.01267  Uiso   1.00
H12    H     0.97310   0.88210   0.14940   0.01267  Uiso   1.00
H13    H     0.59170   0.77180   0.10130   0.01267  Uiso   1.00
H14    H     0.72580   0.72120   0.14110   0.01267  Uiso   1.00
H15    H     0.71290   0.72870   0.04390   0.01267  Uiso   1.00
H16    H     0.75930   0.33320   0.95920   0.01267  Uiso   1.00
H17    H     0.63560   0.26290   0.97640   0.01267  Uiso   1.00
H18    H     0.62450   0.26890   0.87870   0.01267  Uiso   1.00
H19    H     0.04960   0.30190   0.76370   0.01267  Uiso   1.00
H20    H     0.98980   0.12010   0.66880   0.01267  Uiso   1.00
H21    H     0.48890   0.07870   0.61900   0.01267  Uiso   1.00
H22    H     0.32100   0.19900   0.64670   0.01267  Uiso   1.00
H23    H     0.25800   0.38970   0.72130   0.01267  Uiso   1.00
H24    H     0.33800   0.57150   0.80660   0.01267  Uiso   1.00
H25    H     0.58690   0.62910   0.85230   0.01267  Uiso   1.00
H26    H     0.74930   0.05060   0.61360   0.01267  Uiso   1.00
H27    H     0.88480   0.31590   0.28800   0.01267  Uiso   1.00
H28    H     0.74970   0.31440   0.33390   0.01267  Uiso   1.00
H29    H     0.87890   0.24360   0.34780   0.01267  Uiso   1.00
H30    H     0.19010   0.63730   0.41270   0.01267  Uiso   1.00
H31    H     0.28310   0.66900   0.51330   0.01267  Uiso   1.00
H32    H     0.14610   0.73160   0.49640   0.01267  Uiso   1.00
H33    H     0.10210   0.18260   0.21400   0.01267  Uiso   1.00
H34    H     0.18860   0.08100   0.21490   0.01267  Uiso   1.00
H35    H     0.02410   0.08070   0.22520   0.01267  Uiso   1.00
H36    H     0.97570   0.21200   0.93110   0.01267  Uiso   1.00
H37    H     0.85960   0.11890   0.85410   0.01267  Uiso   1.00
H38    H     0.02690   0.11790   0.85060   0.01267  Uiso   1.00
H39    H     0.40830   0.22820   0.89870   0.01267  Uiso   1.00
H40    H     0.27420   0.27880   0.85890   0.01267  Uiso   1.00
H41    H     0.28710   0.27130   0.95610   0.01267  Uiso   1.00
H42    H     0.24070   0.66680   0.04080   0.01267  Uiso   1.00
H43    H     0.36440   0.73710   0.02360   0.01267  Uiso   1.00
H44    H     0.37550   0.73110   0.12130   0.01267  Uiso   1.00
H45    H     0.95040   0.69810   0.23630   0.01267  Uiso   1.00
H46    H     0.01020   0.87990   0.33120   0.01267  Uiso   1.00
H47    H     0.51110   0.92130   0.38100   0.01267  Uiso   1.00
H48    H     0.67900   0.80100   0.35330   0.01267  Uiso   1.00
H49    H     0.74200   0.61030   0.27870   0.01267  Uiso   1.00
H50    H     0.66200   0.42850   0.19340   0.01267  Uiso   1.00
H51    H     0.41310   0.37090   0.14770   0.01267  Uiso   1.00
H52    H     0.25070   0.94940   0.38640   0.01267  Uiso   1.00
C1     C     0.80970   0.52670   0.03120   0.01267  Uiso   1.00
C2     C     0.64750   0.51330   0.01430   0.01267  Uiso   1.00
C3     C     0.57600   0.60530   0.04180   0.01267  Uiso   1.00
C4     C     0.57600   0.40760   0.97230   0.01267  Uiso   1.00
C5     C     0.95610   0.76920   0.91570   0.01267  Uiso   1.00
C6     C     0.97770   0.88830   0.95900   0.01267  Uiso   1.00
C7     C     0.02380   0.93710   0.05220   0.01267  Uiso   1.00
C8     C     0.95460   0.95190   0.90560   0.01267  Uiso   1.00
C9     C     0.96010   0.52670   0.67760   0.01267  Uiso   1.00
C10    C     0.97980   0.51110   0.58410   0.01267  Uiso   1.00
C11    C     0.90810   0.42200   0.51030   0.01267  Uiso   1.00
C12    C     0.07040   0.59240   0.57530   0.01267  Uiso   1.00
C13    C     0.14580   0.68790   0.65870   0.01267  Uiso   1.00
C14    C     0.81420   0.33890   0.52310   0.01267  Uiso   1.00
C15    C     0.90570   0.89710   0.80400   0.01267  Uiso   1.00
C16    C     0.04210   0.86550   0.10930   0.01267  Uiso   1.00
C17    C     0.65870   0.71620   0.08580   0.01267  Uiso   1.00
C18    C     0.65560   0.30990   0.94430   0.01267  Uiso   1.00
C19    C     0.95050   0.27560   0.73920   0.01267  Uiso   1.00
C20    C     0.91610   0.16620   0.68380   0.01267  Uiso   1.00
C21    C     0.51870   0.15500   0.64890   0.01267  Uiso   1.00
C22    C     0.42020   0.22610   0.66830   0.01267  Uiso   1.00
C23    C     0.45740   0.33780   0.71870   0.01267  Uiso   1.00
C24    C     0.60680   0.37720   0.74820   0.01267  Uiso   1.00
C25    C     0.35840   0.41320   0.74090   0.01267  Uiso   1.00
C26    C     0.40510   0.51970   0.79030   0.01267  Uiso   1.00
C27    C     0.55550   0.55370   0.81780   0.01267  Uiso   1.00
C28    C     0.71390   0.30390   0.72640   0.01267  Uiso   1.00
C29    C     0.66870   0.19440   0.67330   0.01267  Uiso   1.00
C30    C     0.77510   0.12580   0.65140   0.01267  Uiso   1.00
C31    C     0.19030   0.47330   0.96880   0.01267  Uiso   1.00
C32    C     0.35250   0.48670   0.98570   0.01267  Uiso   1.00
C33    C     0.42400   0.39470   0.95820   0.01267  Uiso   1.00
C34    C     0.42400   0.59240   0.02770   0.01267  Uiso   1.00
C35    C     0.04390   0.23080   0.08430   0.01267  Uiso   1.00
C36    C     0.02230   0.11170   0.04100   0.01267  Uiso   1.00
C37    C     0.97620   0.06290   0.94780   0.01267  Uiso   1.00
C38    C     0.04540   0.04810   0.09440   0.01267  Uiso   1.00
C39    C     0.03990   0.47330   0.32240   0.01267  Uiso   1.00
C40    C     0.02020   0.48890   0.41590   0.01267  Uiso   1.00
C41    C     0.09190   0.57800   0.48970   0.01267  Uiso   1.00
C42    C     0.92960   0.40760   0.42470   0.01267  Uiso   1.00
C43    C     0.85420   0.31210   0.34130   0.01267  Uiso   1.00
C44    C     0.18580   0.66110   0.47690   0.01267  Uiso   1.00
C45    C     0.09430   0.10290   0.19600   0.01267  Uiso   1.00
C46    C     0.95790   0.13450   0.89070   0.01267  Uiso   1.00
C47    C     0.34130   0.28380   0.91420   0.01267  Uiso   1.00
C48    C     0.34440   0.69010   0.05570   0.01267  Uiso   1.00
C49    C     0.04950   0.72440   0.26080   0.01267  Uiso   1.00
C50    C     0.08390   0.83380   0.31620   0.01267  Uiso   1.00
C51    C     0.48130   0.84500   0.35110   0.01267  Uiso   1.00
C52    C     0.57980   0.77390   0.33170   0.01267  Uiso   1.00
C53    C     0.54260   0.66220   0.28130   0.01267  Uiso   1.00
C54    C     0.39320   0.62280   0.25180   0.01267  Uiso   1.00
C55    C     0.64160   0.58680   0.25910   0.01267  Uiso   1.00
C56    C     0.59490   0.48030   0.20970   0.01267  Uiso   1.00
C57    C     0.44450   0.44630   0.18220   0.01267  Uiso   1.00
C58    C     0.28610   0.69610   0.27360   0.01267  Uiso   1.00
C59    C     0.33130   0.80560   0.32670   0.01267  Uiso   1.00
C60    C     0.22490   0.87420   0.34860   0.01267  Uiso   1.00
N1     N     0.65360   0.48510   0.79760   0.01267  Uiso   1.00
N2     N     0.85440   0.34680   0.76040   0.01267  Uiso   1.00
N3     N     0.34640   0.51490   0.20240   0.01267  Uiso   1.00
N4     N     0.14560   0.65320   0.23960   0.01267  Uiso   1.00
O1     O     0.86730   0.55090   0.97560   0.01267  Uiso   1.00
O2     O     0.87650   0.51490   0.09860   0.01267  Uiso   1.00
O3     O     0.82730   0.71580   0.89490   0.01267  Uiso   1.00
O4     O     0.05730   0.71220   0.89680   0.01267  Uiso   1.00
O5     O     0.05230   0.49840   0.72780   0.01267  Uiso   1.00
O6     O     0.84760   0.56130   0.70310   0.01267  Uiso   1.00
O7     O     0.13270   0.44910   0.02440   0.01267  Uiso   1.00
O8     O     0.12350   0.48510   0.90140   0.01267  Uiso   1.00
O9     O     0.17270   0.28420   0.10510   0.01267  Uiso   1.00
O10    O     0.94270   0.28780   0.10320   0.01267  Uiso   1.00
O11    O     0.94770   0.50160   0.27220   0.01267  Uiso   1.00
O12    O     0.15240   0.43870   0.29690   0.01267  Uiso   1.00
