data_IJIROI_ion_b
_audit_creation_date              2014-07-02
_audit_creation_method            'Materials Studio'
_symmetry_space_group_name_H-M    'P1'
_symmetry_Int_Tables_number       1
_symmetry_cell_setting            triclinic
loop_
_symmetry_equiv_pos_as_xyz
  x,y,z
_cell_length_a                    13.7642
_cell_length_b                    15.6796
_cell_length_c                    4.6902
_cell_angle_alpha                 90.0000
_cell_angle_beta                  90.0000
_cell_angle_gamma                 90.0000
loop_
_atom_site_label
_atom_site_type_symbol
_atom_site_fract_x
_atom_site_fract_y
_atom_site_fract_z
_atom_site_U_iso_or_equiv
_atom_site_adp_type
_atom_site_occupancy
V1     V     0.49010   0.51620   0.02160   0.00000  Uiso   1.00
P2     P     0.63780   0.57580   0.48950   0.00000  Uiso   1.00
O3     O     0.64930   0.66720   0.37960   0.00000  Uiso   1.00
O4     O     0.55860   0.57730   0.71580   0.00000  Uiso   1.00
O5     O     0.61610   0.51320   0.25070   0.00000  Uiso   1.00
O6     O     0.43700   0.60040   0.17100   0.00000  Uiso   1.00
V7     V     0.00990   0.98380   0.02160   0.00000  Uiso   1.00
P8     P     0.86220   0.92420   0.48950   0.00000  Uiso   1.00
O9     O     0.85070   0.83280   0.37960   0.00000  Uiso   1.00
O10    O     0.94140   0.92270   0.71580   0.00000  Uiso   1.00
O11    O     0.88390   0.98680   0.25070   0.00000  Uiso   1.00
O12    O     0.06300   0.89960   0.17100   0.00000  Uiso   1.00
V13    V     0.50990   0.01620   0.97840   0.00000  Uiso   1.00
P14    P     0.36220   0.07580   0.51050   0.00000  Uiso   1.00
O15    O     0.35070   0.16720   0.62040   0.00000  Uiso   1.00
O16    O     0.44140   0.07730   0.28420   0.00000  Uiso   1.00
O17    O     0.38390   0.01320   0.74930   0.00000  Uiso   1.00
O18    O     0.56300   0.10040   0.82900   0.00000  Uiso   1.00
V19    V     0.99010   0.48380   0.97840   0.00000  Uiso   1.00
P20    P     0.13780   0.42420   0.51050   0.00000  Uiso   1.00
O21    O     0.14930   0.33280   0.62040   0.00000  Uiso   1.00
O22    O     0.05860   0.42270   0.28420   0.00000  Uiso   1.00
O23    O     0.11610   0.48680   0.74930   0.00000  Uiso   1.00
O24    O     0.93700   0.39960   0.82900   0.00000  Uiso   1.00
V25    V     0.50990   0.48380   0.97840   0.00000  Uiso   1.00
P26    P     0.36220   0.42420   0.51050   0.00000  Uiso   1.00
O27    O     0.35070   0.33280   0.62040   0.00000  Uiso   1.00
O28    O     0.44140   0.42270   0.28420   0.00000  Uiso   1.00
O29    O     0.38390   0.48680   0.74930   0.00000  Uiso   1.00
O30    O     0.56300   0.39960   0.82900   0.00000  Uiso   1.00
V31    V     0.99010   0.01620   0.97840   0.00000  Uiso   1.00
P32    P     0.13780   0.07580   0.51050   0.00000  Uiso   1.00
O33    O     0.14930   0.16720   0.62040   0.00000  Uiso   1.00
O34    O     0.05860   0.07730   0.28420   0.00000  Uiso   1.00
O35    O     0.11610   0.01320   0.74930   0.00000  Uiso   1.00
O36    O     0.93700   0.10040   0.82900   0.00000  Uiso   1.00
V37    V     0.49010   0.98380   0.02160   0.00000  Uiso   1.00
P38    P     0.63780   0.92420   0.48950   0.00000  Uiso   1.00
O39    O     0.64930   0.83280   0.37960   0.00000  Uiso   1.00
O40    O     0.55860   0.92270   0.71580   0.00000  Uiso   1.00
O41    O     0.61610   0.98680   0.25070   0.00000  Uiso   1.00
O42    O     0.43700   0.89960   0.17100   0.00000  Uiso   1.00
V43    V     0.00990   0.51620   0.02160   0.00000  Uiso   1.00
P44    P     0.86220   0.57580   0.48950   0.00000  Uiso   1.00
O45    O     0.85070   0.66720   0.37960   0.00000  Uiso   1.00
O46    O     0.94140   0.57730   0.71580   0.00000  Uiso   1.00
O47    O     0.88390   0.51320   0.25070   0.00000  Uiso   1.00
O48    O     0.06300   0.60040   0.17100   0.00000  Uiso   1.00
V49    V     0.75000   0.75000   0.28080   0.00000  Uiso   1.00
O50    O     0.75000   0.75000   0.93830   0.00000  Uiso   1.00
V51    V     0.25000   0.25000   0.71920   0.00000  Uiso   1.00
O52    O     0.25000   0.25000   0.06170   0.00000  Uiso   1.00
K53    K     0.53840   0.75000   0.90230   0.00000  Uiso   1.00
K55    K     0.96160   0.75000   0.90230   0.00000  Uiso   1.00
K57    K     0.46160   0.25000   0.09770   0.00000  Uiso   1.00
K59    K     0.03840   0.25000   0.09770   0.00000  Uiso   1.00
C61    C     0.75000   0.54450   0.65660   0.00000  Uiso   1.00
H63    H     0.75000   0.48280   0.67220   0.00000  Uiso   1.00
H64    H     0.75000   0.56710   0.84910   0.00000  Uiso   1.00
C65    C     0.75000   0.95550   0.65660   0.00000  Uiso   1.00
H67    H     0.75000   0.01720   0.67220   0.00000  Uiso   1.00
H68    H     0.75000   0.93290   0.84910   0.00000  Uiso   1.00
C69    C     0.25000   0.04450   0.34340   0.00000  Uiso   1.00
H71    H     0.25000   0.98280   0.32780   0.00000  Uiso   1.00
H72    H     0.25000   0.06710   0.15090   0.00000  Uiso   1.00
C73    C     0.25000   0.45550   0.34340   0.00000  Uiso   1.00
H75    H     0.25000   0.51720   0.32780   0.00000  Uiso   1.00
H76    H     0.25000   0.43290   0.15090   0.00000  Uiso   1.00
loop_
_geom_bond_atom_site_label_1
_geom_bond_atom_site_label_2
_geom_bond_distance
_geom_bond_site_symmetry_2
_ccdc_geom_bond_type
V1     O5      2.041   .     S
V1     O6      1.664   .     S
V1     O28     2.029   .     S
V1     O4      1.966   1_554 S
P2     O3      1.531   .     D
P2     O4      1.522   .     S
P2     O5      1.519   .     S
P2     C61     1.800   .     S
O3     V49     1.955   .     S
O4     V25     2.029   .     S
O4     V1      1.966   1_556 S
O5     V25     1.995   1_554 S
V7     O12     1.664   .     S
V7     O10     1.966   1_454 D
V7     O11     2.041   1_455 S
V7     O34     2.029   1_565 S
V7     O35     1.995   1_564 S
P8     O9      1.531   .     D
P8     O10     1.522   .     S
P8     O11     1.519   .     S
P8     C65     1.800   .     S
O9     V49     1.955   .     S
O10    V7      1.966   1_656 D
O10    V31     2.029   1_565 S
O11    V7      2.041   1_655 S
O11    V31     1.995   1_564 D
V13    O17     2.041   .     S
V13    O18     1.664   .     S
V13    O16     1.966   1_556 S
V13    O40     2.029   1_545 S
V13    O41     1.995   1_546 S
P14    O15     1.531   .     D
P14    O16     1.522   .     S
P14    O17     1.519   .     S
P14    C69     1.800   .     S
O15    V51     1.955   .     S
O16    V13     1.966   1_554 S
O16    V37     2.029   1_545 S
O17    V37     1.995   1_546 S
V19    O24     1.664   .     S
V19    O46     2.029   .     S
V19    O22     1.966   1_656 D
P20    O21     1.531   .     D
P20    O22     1.522   .     S
P20    O23     1.519   .     S
P20    C73     1.800   .     S
O21    V51     1.955   .     S
O22    V43     2.029   .     S
O22    V19     1.966   1_454 D
O23    V43     1.995   1_556 S
V25    O29     2.041   .     S
V25    O30     1.664   .     S
V25    O5      1.995   1_556 S
P26    O27     1.531   .     D
P26    O28     1.522   .     S
P26    O29     1.519   .     S
P26    C73     1.800   .     S
O27    V51     1.955   .     S
V31    O36     1.664   .     S
V31    O10     2.029   1_545 S
V31    O11     1.995   1_546 D
V31    O34     1.966   1_656 S
V31    O35     2.041   1_655 D
P32    O33     1.531   .     D
P32    O34     1.522   .     S
P32    O35     1.519   .     S
P32    C69     1.800   .     S
O33    V51     1.955   .     S
O34    V7      2.029   1_545 S
O34    V31     1.966   1_454 S
O35    V7      1.995   1_546 S
O35    V31     2.041   1_455 D
V37    O41     2.041   .     S
V37    O42     1.664   .     S
V37    O16     2.029   1_565 S
V37    O17     1.995   1_564 S
V37    O40     1.966   1_554 S
P38    O39     1.531   .     D
P38    O40     1.522   .     S
P38    O41     1.519   .     S
P38    C65     1.800   .     S
O39    V49     1.955   .     S
O40    V13     2.029   1_565 S
O40    V37     1.966   1_556 S
O41    V13     1.995   1_564 S
V43    O48     1.664   .     S
V43    O23     1.995   1_554 S
V43    O46     1.966   1_454 S
V43    O47     2.041   1_455 S
P44    O45     1.531   .     D
P44    O46     1.522   .     S
P44    O47     1.519   .     S
P44    C61     1.800   .     S
O45    V49     1.955   .     S
O46    V43     1.966   1_656 S
O47    V43     2.041   1_655 S
V49    O50     1.606   1_554 S
O50    V49     1.606   1_556 S
V51    O52     1.606   1_556 S
O52    V51     1.606   1_554 S
C61    H63     0.970   .     S
C61    H64     0.970   .     S
C65    H68     0.970   .     S
C65    H67     0.970   1_565 S
H67    C65     0.970   1_545 S
C69    H72     0.970   .     S
C69    H71     0.970   1_545 S
H71    C69     0.970   1_565 S
C73    H75     0.970   .     S
C73    H76     0.970   .     S
