data_IMIXIM_clean
_audit_creation_date              2014-07-02
_audit_creation_method            'Materials Studio'
_symmetry_space_group_name_H-M    'P1'
_symmetry_Int_Tables_number       1
_symmetry_cell_setting            triclinic
loop_
_symmetry_equiv_pos_as_xyz
  x,y,z
_cell_length_a                    11.8241
_cell_length_b                    17.6271
_cell_length_c                    17.6271
_cell_angle_alpha                 64.8489
_cell_angle_beta                  77.0796
_cell_angle_gamma                 102.9200
loop_
_atom_site_label
_atom_site_type_symbol
_atom_site_fract_x
_atom_site_fract_y
_atom_site_fract_z
_atom_site_U_iso_or_equiv
_atom_site_adp_type
_atom_site_occupancy
Cu1    Cu    0.17645   0.10954   0.99561   0.01267  Uiso   1.00
Cu2    Cu    0.51227   0.54324   0.88040   0.01267  Uiso   1.00
Cu3    Cu    0.17206   0.99561   0.89485   0.01267  Uiso   1.00
Cu4    Cu    0.39267   0.88040   0.57636   0.01267  Uiso   1.00
Cu5    Cu    0.06691   0.89485   0.10954   0.01267  Uiso   1.00
Cu6    Cu    0.96903   0.57636   0.54324   0.01267  Uiso   1.00
Cu7    Cu    0.82355   0.89046   0.00439   0.01267  Uiso   1.00
Cu8    Cu    0.48773   0.45676   0.11960   0.01267  Uiso   1.00
Cu9    Cu    0.82794   0.00439   0.10515   0.01267  Uiso   1.00
Cu10   Cu    0.60733   0.11960   0.42364   0.01267  Uiso   1.00
Cu11   Cu    0.93309   0.10515   0.89046   0.01267  Uiso   1.00
Cu12   Cu    0.03097   0.42364   0.45676   0.01267  Uiso   1.00
H1     H     0.21610   0.22500   0.08770   0.01267  Uiso   1.00
H2     H     0.32350   0.37720   0.03290   0.01267  Uiso   1.00
H3     H     0.38830   0.42660   0.78410   0.01267  Uiso   1.00
H4     H     0.41950   0.34700   0.69550   0.01267  Uiso   1.00
H5     H     0.28800   0.35940   0.70460   0.01267  Uiso   1.00
H6     H     0.30970   0.27880   0.69120   0.01267  Uiso   1.00
H7     H     0.10720   0.48370   0.25730   0.01267  Uiso   1.00
H8     H     0.27530   0.40280   0.43020   0.01267  Uiso   1.00
H9     H     0.43820   0.41110   0.32090   0.01267  Uiso   1.00
H10    H     0.12710   0.54310   0.12620   0.01267  Uiso   1.00
H11    H     0.15010   0.51120   0.05350   0.01267  Uiso   1.00
H12    H     0.23170   0.60990   0.02830   0.01267  Uiso   1.00
H13    H     0.30380   0.08770   0.68730   0.01267  Uiso   1.00
H14    H     0.35640   0.03290   0.58990   0.01267  Uiso   1.00
H15    H     0.17240   0.78410   0.78930   0.01267  Uiso   1.00
H16    H     0.11500   0.69550   0.95750   0.01267  Uiso   1.00
H17    H     0.99260   0.70460   0.93600   0.01267  Uiso   1.00
H18    H     0.00090   0.69120   0.03000   0.01267  Uiso   1.00
H19    H     0.36450   0.25730   0.25900   0.01267  Uiso   1.00
H20    H     0.70550   0.43020   0.16700   0.01267  Uiso   1.00
H21    H     0.75910   0.32090   0.26800   0.01267  Uiso   1.00
H22    H     0.25330   0.12620   0.33070   0.01267  Uiso   1.00
H23    H     0.20360   0.05350   0.43530   0.01267  Uiso   1.00
H24    H     0.26000   0.02830   0.36180   0.01267  Uiso   1.00
H25    H     0.99110   0.68730   0.22500   0.01267  Uiso   1.00
H26    H     0.94630   0.58990   0.37720   0.01267  Uiso   1.00
H27    H     0.96170   0.78930   0.42660   0.01267  Uiso   1.00
H28    H     0.07250   0.95750   0.34700   0.01267  Uiso   1.00
H29    H     0.92860   0.93600   0.35940   0.01267  Uiso   1.00
H30    H     0.03090   0.03000   0.27880   0.01267  Uiso   1.00
H31    H     0.62350   0.25900   0.48370   0.01267  Uiso   1.00
H32    H     0.87250   0.16700   0.40280   0.01267  Uiso   1.00
H33    H     0.02710   0.26800   0.41110   0.01267  Uiso   1.00
H34    H     0.58400   0.33070   0.54310   0.01267  Uiso   1.00
H35    H     0.63890   0.43530   0.51120   0.01267  Uiso   1.00
H36    H     0.62180   0.36180   0.60990   0.01267  Uiso   1.00
H37    H     0.78390   0.77500   0.91230   0.01267  Uiso   1.00
H38    H     0.67650   0.62280   0.96710   0.01267  Uiso   1.00
H39    H     0.61170   0.57340   0.21590   0.01267  Uiso   1.00
H40    H     0.58050   0.65300   0.30450   0.01267  Uiso   1.00
H41    H     0.71200   0.64060   0.29540   0.01267  Uiso   1.00
H42    H     0.69030   0.72120   0.30880   0.01267  Uiso   1.00
H43    H     0.89280   0.51630   0.74270   0.01267  Uiso   1.00
H44    H     0.72470   0.59720   0.56980   0.01267  Uiso   1.00
H45    H     0.56180   0.58890   0.67910   0.01267  Uiso   1.00
H46    H     0.87290   0.45690   0.87380   0.01267  Uiso   1.00
H47    H     0.84990   0.48880   0.94650   0.01267  Uiso   1.00
H48    H     0.76830   0.39010   0.97170   0.01267  Uiso   1.00
H49    H     0.69620   0.91230   0.31270   0.01267  Uiso   1.00
H50    H     0.64360   0.96710   0.41010   0.01267  Uiso   1.00
H51    H     0.82760   0.21590   0.21070   0.01267  Uiso   1.00
H52    H     0.88500   0.30450   0.04250   0.01267  Uiso   1.00
H53    H     0.00740   0.29540   0.06400   0.01267  Uiso   1.00
H54    H     0.99910   0.30880   0.97000   0.01267  Uiso   1.00
H55    H     0.63550   0.74270   0.74100   0.01267  Uiso   1.00
H56    H     0.29450   0.56980   0.83300   0.01267  Uiso   1.00
H57    H     0.24090   0.67910   0.73200   0.01267  Uiso   1.00
H58    H     0.74670   0.87380   0.66930   0.01267  Uiso   1.00
H59    H     0.79640   0.94650   0.56470   0.01267  Uiso   1.00
H60    H     0.74000   0.97170   0.63820   0.01267  Uiso   1.00
H61    H     0.00890   0.31270   0.77500   0.01267  Uiso   1.00
H62    H     0.05370   0.41010   0.62280   0.01267  Uiso   1.00
H63    H     0.03830   0.21070   0.57340   0.01267  Uiso   1.00
H64    H     0.92750   0.04250   0.65300   0.01267  Uiso   1.00
H65    H     0.07140   0.06400   0.64060   0.01267  Uiso   1.00
H66    H     0.96910   0.97000   0.72120   0.01267  Uiso   1.00
H67    H     0.37650   0.74100   0.51630   0.01267  Uiso   1.00
H68    H     0.12750   0.83300   0.59720   0.01267  Uiso   1.00
H69    H     0.97290   0.73200   0.58890   0.01267  Uiso   1.00
H70    H     0.41600   0.66930   0.45690   0.01267  Uiso   1.00
H71    H     0.36110   0.56470   0.48880   0.01267  Uiso   1.00
H72    H     0.37820   0.63820   0.39010   0.01267  Uiso   1.00
C1     C     0.25290   0.26530   0.02480   0.01267  Uiso   1.00
C2     C     0.31640   0.35670   0.99170   0.01267  Uiso   1.00
C3     C     0.35460   0.38520   0.84680   0.01267  Uiso   1.00
C4     C     0.29330   0.29420   0.87790   0.01267  Uiso   1.00
C5     C     0.28420   0.25560   0.81950   0.01267  Uiso   1.00
C6     C     0.32920   0.31530   0.71900   0.01267  Uiso   1.00
C7     C     0.27382   0.47796   0.20350   0.01267  Uiso   1.00
C8     C     0.17559   0.46901   0.27054   0.01267  Uiso   1.00
C9     C     0.27313   0.42061   0.37172   0.01267  Uiso   1.00
C10    C     0.37042   0.42602   0.30666   0.01267  Uiso   1.00
C11    C     0.28438   0.51188   0.10944   0.01267  Uiso   1.00
C12    C     0.19010   0.54710   0.07650   0.01267  Uiso   1.00
C13    C     0.27770   0.02480   0.70990   0.01267  Uiso   1.00
C14    C     0.30810   0.99170   0.65160   0.01267  Uiso   1.00
C15    C     0.20140   0.84680   0.76800   0.01267  Uiso   1.00
C16    C     0.17120   0.87790   0.82790   0.01267  Uiso   1.00
C17    C     0.10370   0.81950   0.92490   0.01267  Uiso   1.00
C18    C     0.04820   0.71900   0.96570   0.01267  Uiso   1.00
C19    C     0.47732   0.20350   0.31854   0.01267  Uiso   1.00
C20    C     0.44613   0.27054   0.26045   0.01267  Uiso   1.00
C21    C     0.64485   0.37172   0.20767   0.01267  Uiso   1.00
C22    C     0.67708   0.30666   0.26732   0.01267  Uiso   1.00
C23    C     0.39382   0.10944   0.37868   0.01267  Uiso   1.00
C24    C     0.26660   0.07650   0.37640   0.01267  Uiso   1.00
C25    C     0.98760   0.70990   0.26530   0.01267  Uiso   1.00
C26    C     0.95970   0.65160   0.35670   0.01267  Uiso   1.00
C27    C     0.96940   0.76800   0.38520   0.01267  Uiso   1.00
C28    C     0.99910   0.82790   0.29420   0.01267  Uiso   1.00
C29    C     0.02860   0.92490   0.25560   0.01267  Uiso   1.00
C30    C     0.01390   0.96570   0.31530   0.01267  Uiso   1.00
C31    C     0.79586   0.31854   0.47796   0.01267  Uiso   1.00
C32    C     0.70658   0.26045   0.46901   0.01267  Uiso   1.00
C33    C     0.85252   0.20767   0.42061   0.01267  Uiso   1.00
C34    C     0.94440   0.26732   0.42602   0.01267  Uiso   1.00
C35    C     0.77250   0.37868   0.51188   0.01267  Uiso   1.00
C36    C     0.64300   0.37640   0.54710   0.01267  Uiso   1.00
C37    C     0.74710   0.73470   0.97520   0.01267  Uiso   1.00
C38    C     0.68360   0.64330   0.00830   0.01267  Uiso   1.00
C39    C     0.64540   0.61480   0.15320   0.01267  Uiso   1.00
C40    C     0.70670   0.70580   0.12210   0.01267  Uiso   1.00
C41    C     0.71580   0.74440   0.18050   0.01267  Uiso   1.00
C42    C     0.67080   0.68470   0.28100   0.01267  Uiso   1.00
C43    C     0.72618   0.52204   0.79650   0.01267  Uiso   1.00
C44    C     0.82441   0.53099   0.72946   0.01267  Uiso   1.00
C45    C     0.72687   0.57939   0.62828   0.01267  Uiso   1.00
C46    C     0.62958   0.57398   0.69334   0.01267  Uiso   1.00
C47    C     0.71562   0.48812   0.89056   0.01267  Uiso   1.00
C48    C     0.80990   0.45290   0.92350   0.01267  Uiso   1.00
C49    C     0.72230   0.97520   0.29010   0.01267  Uiso   1.00
C50    C     0.69190   0.00830   0.34840   0.01267  Uiso   1.00
C51    C     0.79860   0.15320   0.23200   0.01267  Uiso   1.00
C52    C     0.82880   0.12210   0.17210   0.01267  Uiso   1.00
C53    C     0.89630   0.18050   0.07510   0.01267  Uiso   1.00
C54    C     0.95180   0.28100   0.03430   0.01267  Uiso   1.00
C55    C     0.52268   0.79650   0.68146   0.01267  Uiso   1.00
C56    C     0.55387   0.72946   0.73955   0.01267  Uiso   1.00
C57    C     0.35515   0.62828   0.79233   0.01267  Uiso   1.00
C58    C     0.32292   0.69334   0.73268   0.01267  Uiso   1.00
C59    C     0.60618   0.89056   0.62132   0.01267  Uiso   1.00
C60    C     0.73340   0.92350   0.62360   0.01267  Uiso   1.00
C61    C     0.01240   0.29010   0.73470   0.01267  Uiso   1.00
C62    C     0.04030   0.34840   0.64330   0.01267  Uiso   1.00
C63    C     0.03060   0.23200   0.61480   0.01267  Uiso   1.00
C64    C     0.00090   0.17210   0.70580   0.01267  Uiso   1.00
C65    C     0.97140   0.07510   0.74440   0.01267  Uiso   1.00
C66    C     0.98610   0.03430   0.68470   0.01267  Uiso   1.00
C67    C     0.20414   0.68146   0.52204   0.01267  Uiso   1.00
C68    C     0.29342   0.73955   0.53099   0.01267  Uiso   1.00
C69    C     0.14748   0.79233   0.57939   0.01267  Uiso   1.00
C70    C     0.05560   0.73268   0.57398   0.01267  Uiso   1.00
C71    C     0.22750   0.62132   0.48812   0.01267  Uiso   1.00
C72    C     0.35700   0.62360   0.45290   0.01267  Uiso   1.00
N1     N     0.24423   0.23476   0.96687   0.01267  Uiso   1.00
N2     N     0.36657   0.41515   0.90474   0.01267  Uiso   1.00
N3     N     0.23557   0.17040   0.86159   0.01267  Uiso   1.00
N4     N     0.36856   0.45225   0.22297   0.01267  Uiso   1.00
N5     N     0.17662   0.44000   0.35334   0.01267  Uiso   1.00
N6     N     0.38175   0.51240   0.05875   0.01267  Uiso   1.00
N7     N     0.21110   0.96687   0.79837   0.01267  Uiso   1.00
N8     N     0.27131   0.90474   0.68011   0.01267  Uiso   1.00
N9     N     0.09716   0.86159   0.96801   0.01267  Uiso   1.00
N10    N     0.59153   0.22297   0.32478   0.01267  Uiso   1.00
N11    N     0.52996   0.35334   0.20666   0.01267  Uiso   1.00
N12    N     0.44050   0.05875   0.42885   0.01267  Uiso   1.00
N13    N     0.00947   0.79837   0.23476   0.01267  Uiso   1.00
N14    N     0.95142   0.68011   0.41515   0.01267  Uiso   1.00
N15    N     0.06517   0.96801   0.17040   0.01267  Uiso   1.00
N16    N     0.91631   0.32478   0.45225   0.01267  Uiso   1.00
N17    N     0.73662   0.20666   0.44000   0.01267  Uiso   1.00
N18    N     0.86935   0.42885   0.51240   0.01267  Uiso   1.00
N19    N     0.75577   0.76524   0.03313   0.01267  Uiso   1.00
N20    N     0.63343   0.58485   0.09526   0.01267  Uiso   1.00
N21    N     0.76443   0.82960   0.13841   0.01267  Uiso   1.00
N22    N     0.63144   0.54775   0.77703   0.01267  Uiso   1.00
N23    N     0.82338   0.56000   0.64666   0.01267  Uiso   1.00
N24    N     0.61825   0.48760   0.94125   0.01267  Uiso   1.00
N25    N     0.78890   0.03313   0.20163   0.01267  Uiso   1.00
N26    N     0.72869   0.09526   0.31989   0.01267  Uiso   1.00
N27    N     0.90284   0.13841   0.03199   0.01267  Uiso   1.00
N28    N     0.40847   0.77703   0.67522   0.01267  Uiso   1.00
N29    N     0.47004   0.64666   0.79334   0.01267  Uiso   1.00
N30    N     0.55950   0.94125   0.57115   0.01267  Uiso   1.00
N31    N     0.99053   0.20163   0.76524   0.01267  Uiso   1.00
N32    N     0.04858   0.31989   0.58485   0.01267  Uiso   1.00
N33    N     0.93483   0.03199   0.82960   0.01267  Uiso   1.00
N34    N     0.08369   0.67522   0.54775   0.01267  Uiso   1.00
N35    N     0.26338   0.79334   0.56000   0.01267  Uiso   1.00
N36    N     0.13065   0.57115   0.48760   0.01267  Uiso   1.00
O1     O     0.22077   0.12492   0.81821   0.01267  Uiso   1.00
O2     O     0.39808   0.54789   0.97145   0.01267  Uiso   1.00
O3     O     0.03898   0.81821   0.05687   0.01267  Uiso   1.00
O4     O     0.36953   0.97145   0.48066   0.01267  Uiso   1.00
O5     O     0.09585   0.05687   0.12492   0.01267  Uiso   1.00
O6     O     0.85019   0.48066   0.54789   0.01267  Uiso   1.00
O7     O     0.77923   0.87508   0.18179   0.01267  Uiso   1.00
O8     O     0.60192   0.45211   0.02855   0.01267  Uiso   1.00
O9     O     0.96102   0.18179   0.94313   0.01267  Uiso   1.00
O10    O     0.63047   0.02855   0.51934   0.01267  Uiso   1.00
O11    O     0.90415   0.94313   0.87508   0.01267  Uiso   1.00
O12    O     0.14981   0.51934   0.45211   0.01267  Uiso   1.00
O13    O     0.10523  -0.00000   0.00000   0.01267  Uiso   1.00
O14    O     0.89477   0.00000   0.00000   0.01267  Uiso   1.00
F1     F     0.34660   0.09460   0.00380   0.01267  Uiso   1.00
F2     F     0.35040   0.00380   0.90160   0.01267  Uiso   1.00
F3     F     0.25200   0.90160   0.09460   0.01267  Uiso   1.00
F4     F     0.65340   0.90540   0.99620   0.01267  Uiso   1.00
F5     F     0.64960   0.99620   0.09840   0.01267  Uiso   1.00
F6     F     0.74800   0.09840   0.90540   0.01267  Uiso   1.00
