data_IMUVAO_charged
_audit_creation_date              2014-07-02
_audit_creation_method            'Materials Studio'
_symmetry_space_group_name_H-M    'P1'
_symmetry_Int_Tables_number       1
_symmetry_cell_setting            triclinic
loop_
_symmetry_equiv_pos_as_xyz
  x,y,z
_cell_length_a                    22.3285
_cell_length_b                    22.3285
_cell_length_c                    22.3285
_cell_angle_alpha                 105.7790
_cell_angle_beta                  111.3480
_cell_angle_gamma                 111.3480
loop_
_atom_site_label
_atom_site_type_symbol
_atom_site_fract_x
_atom_site_fract_y
_atom_site_fract_z
_atom_site_U_iso_or_equiv
_atom_site_adp_type
_atom_site_occupancy
In1    In    0.30892   0.30812   0.20748   0.01267  Uiso   1.00
In2    In    0.69108   0.89856   0.99920   0.01267  Uiso   1.00
In3    In    0.10064   0.79252   0.10144   0.01267  Uiso   1.00
In4    In    0.89936   0.00080   0.69188   0.01267  Uiso   1.00
In5    In    0.10064   0.10144   0.79252   0.01267  Uiso   1.00
In6    In    0.89936   0.69188   0.00080   0.01267  Uiso   1.00
In7    In    0.69108   0.99920   0.89856   0.01267  Uiso   1.00
In8    In    0.30892   0.20748   0.30812   0.01267  Uiso   1.00
In9    In    0.26878   0.76878   0.50000   0.01267  Uiso   1.00
In10   In    0.73122   0.23122   0.50000   0.01267  Uiso   1.00
In11   In    0.26878   0.50000   0.76878   0.01267  Uiso   1.00
In12   In    0.73122   0.50000   0.23122   0.01267  Uiso   1.00
In13   In    0.50000   0.75000   0.25000   0.01267  Uiso   1.00
In14   In    0.50000   0.25000   0.75000   0.01267  Uiso   1.00
In15   In    0.20274   0.29224   0.29224   0.01267  Uiso   1.00
In16   In    0.79726   0.08950   0.08950   0.01267  Uiso   1.00
In17   In    1.00000   0.70776   0.91050   0.01267  Uiso   1.00
In18   In    0.00000   0.91050   0.70776   0.01267  Uiso   1.00
H1     H     0.27890   0.51810   0.38640   0.01267  Uiso   1.00
H2     H     0.11440   0.21000   0.99080   0.01267  Uiso   1.00
H3     H     0.38530   0.71250   0.39200   0.01267  Uiso   1.00
H4     H     0.45390   0.84970   0.73420   0.01267  Uiso   1.00
H5     H     0.38560   0.54050   0.27690   0.01267  Uiso   1.00
H6     H     0.72110   0.10750   0.23920   0.01267  Uiso   1.00
H7     H     0.88560   0.87640   0.09560   0.01267  Uiso   1.00
H8     H     0.61470   0.00670   0.32720   0.01267  Uiso   1.00
H9     H     0.54610   0.28030   0.39580   0.01267  Uiso   1.00
H10    H     0.61440   0.89130   0.15490   0.01267  Uiso   1.00
H11    H     0.13170   0.61360   0.89250   0.01267  Uiso   1.00
H12    H     0.21920   0.00920   0.12360   0.01267  Uiso   1.00
H13    H     0.32050   0.60800   0.99330   0.01267  Uiso   1.00
H14    H     0.11550   0.26580   0.71970   0.01267  Uiso   1.00
H15    H     0.26360   0.72310   0.10870   0.01267  Uiso   1.00
H16    H     0.86830   0.76080   0.48190   0.01267  Uiso   1.00
H17    H     0.78080   0.90440   0.79000   0.01267  Uiso   1.00
H18    H     0.67950   0.67280   0.28750   0.01267  Uiso   1.00
H19    H     0.88450   0.60420   0.15030   0.01267  Uiso   1.00
H20    H     0.73640   0.84510   0.45950   0.01267  Uiso   1.00
H21    H     0.13170   0.89250   0.61360   0.01267  Uiso   1.00
H22    H     0.21920   0.12360   0.00920   0.01267  Uiso   1.00
H23    H     0.32050   0.99330   0.60800   0.01267  Uiso   1.00
H24    H     0.11550   0.71970   0.26580   0.01267  Uiso   1.00
H25    H     0.26360   0.10870   0.72310   0.01267  Uiso   1.00
H26    H     0.86830   0.48190   0.76080   0.01267  Uiso   1.00
H27    H     0.78080   0.79000   0.90440   0.01267  Uiso   1.00
H28    H     0.67950   0.28750   0.67280   0.01267  Uiso   1.00
H29    H     0.88450   0.15030   0.60420   0.01267  Uiso   1.00
H30    H     0.73640   0.45950   0.84510   0.01267  Uiso   1.00
H31    H     0.72110   0.23920   0.10750   0.01267  Uiso   1.00
H32    H     0.88560   0.09560   0.87640   0.01267  Uiso   1.00
H33    H     0.61470   0.32720   0.00670   0.01267  Uiso   1.00
H34    H     0.54610   0.39580   0.28030   0.01267  Uiso   1.00
H35    H     0.61440   0.15490   0.89130   0.01267  Uiso   1.00
H36    H     0.27890   0.38640   0.51810   0.01267  Uiso   1.00
H37    H     0.11440   0.99080   0.21000   0.01267  Uiso   1.00
H38    H     0.38530   0.39200   0.71250   0.01267  Uiso   1.00
H39    H     0.45390   0.73420   0.84970   0.01267  Uiso   1.00
H40    H     0.38560   0.27690   0.54050   0.01267  Uiso   1.00
H41    H     0.26940   0.65800   0.65800   0.01267  Uiso   1.00
H42    H     0.73060   0.38860   0.38860   0.01267  Uiso   1.00
H43    H     0.00000   0.34200   0.61140   0.01267  Uiso   1.00
H44    H     0.00000   0.61140   0.34200   0.01267  Uiso   1.00
H45    H     0.00000   0.20320   0.09660   0.01267  Uiso   1.00
H46    H     0.00000   0.09660   0.20320   0.01267  Uiso   1.00
H47    H     0.10660   0.90340   0.90340   0.01267  Uiso   1.00
H48    H     0.89340   0.79680   0.79680   0.01267  Uiso   1.00
C1     C     0.32470   0.76180   0.62190   0.01267  Uiso   1.00
C2     C     0.35660   0.75420   0.68840   0.01267  Uiso   1.00
C3     C     0.13990   0.25860   0.12710   0.01267  Uiso   1.00
C4     C     0.29910   0.65050   0.43860   0.01267  Uiso   1.00
C5     C     0.31010   0.44130   0.30680   0.01267  Uiso   1.00
C6     C     0.32690   0.62050   0.39400   0.01267  Uiso   1.00
C7     C     0.43070   0.67840   0.30390   0.01267  Uiso   1.00
C8     C     0.33000   0.51850   0.32770   0.01267  Uiso   1.00
C9     C     0.30670   0.54650   0.37180   0.01267  Uiso   1.00
C10    C     0.06910   0.19550   0.98960   0.01267  Uiso   1.00
C11    C     0.06600   0.21690   0.05550   0.01267  Uiso   1.00
C12    C     0.37010   0.66350   0.37420   0.01267  Uiso   1.00
C13    C     0.43010   0.81090   0.74140   0.01267  Uiso   1.00
C14    C     0.38970   0.63490   0.32980   0.01267  Uiso   1.00
C15    C     0.37030   0.56020   0.30650   0.01267  Uiso   1.00
C16    C     0.67530   0.29720   0.43710   0.01267  Uiso   1.00
C17    C     0.64340   0.33180   0.39760   0.01267  Uiso   1.00
C18    C     0.86010   0.98720   0.11870   0.01267  Uiso   1.00
C19    C     0.70090   0.13950   0.35140   0.01267  Uiso   1.00
C20    C     0.68990   0.99670   0.13120   0.01267  Uiso   1.00
C21    C     0.67310   0.06710   0.29360   0.01267  Uiso   1.00
C22    C     0.56930   0.87320   0.24770   0.01267  Uiso   1.00
C23    C     0.67000   0.99770   0.18850   0.01267  Uiso   1.00
C24    C     0.69330   0.06510   0.23980   0.01267  Uiso   1.00
C25    C     0.93090   0.92050   0.12640   0.01267  Uiso   1.00
C26    C     0.93400   0.98950   0.15090   0.01267  Uiso   1.00
C27    C     0.62990   0.00410   0.29340   0.01267  Uiso   1.00
C28    C     0.56990   0.31130   0.38080   0.01267  Uiso   1.00
C29    C     0.61030   0.94010   0.24520   0.01267  Uiso   1.00
C30    C     0.62970   0.93620   0.18990   0.01267  Uiso   1.00
C31    C     0.13990   0.37810   0.70280   0.01267  Uiso   1.00
C32    C     0.06580   0.31160   0.66820   0.01267  Uiso   1.00
C33    C     0.13150   0.87290   0.01280   0.01267  Uiso   1.00
C34    C     0.21190   0.56140   0.86050   0.01267  Uiso   1.00
C35    C     0.13450   0.69320   0.00330   0.01267  Uiso   1.00
C36    C     0.22650   0.60600   0.93290   0.01267  Uiso   1.00
C37    C     0.37450   0.69610   0.12680   0.01267  Uiso   1.00
C38    C     0.19080   0.67230   0.00230   0.01267  Uiso   1.00
C39    C     0.17470   0.62820   0.93490   0.01267  Uiso   1.00
C40    C     0.20590   0.01040   0.07950   0.01267  Uiso   1.00
C41    C     0.16140   0.94450   0.01050   0.01267  Uiso   1.00
C42    C     0.28930   0.62580   0.99590   0.01267  Uiso   1.00
C43    C     0.06950   0.25860   0.68870   0.01267  Uiso   1.00
C44    C     0.30510   0.67020   0.05990   0.01267  Uiso   1.00
C45    C     0.25370   0.69350   0.06380   0.01267  Uiso   1.00
C46    C     0.86010   0.56290   0.23820   0.01267  Uiso   1.00
C47    C     0.93420   0.60240   0.24580   0.01267  Uiso   1.00
C48    C     0.86850   0.88130   0.74140   0.01267  Uiso   1.00
C49    C     0.78810   0.64860   0.34950   0.01267  Uiso   1.00
C50    C     0.86550   0.86880   0.55870   0.01267  Uiso   1.00
C51    C     0.77350   0.70640   0.37950   0.01267  Uiso   1.00
C52    C     0.62550   0.75230   0.32160   0.01267  Uiso   1.00
C53    C     0.80920   0.81150   0.48150   0.01267  Uiso   1.00
C54    C     0.82530   0.76020   0.45350   0.01267  Uiso   1.00
C55    C     0.79410   0.87360   0.80450   0.01267  Uiso   1.00
C56    C     0.83860   0.84910   0.78310   0.01267  Uiso   1.00
C57    C     0.71070   0.70660   0.33650   0.01267  Uiso   1.00
C58    C     0.93050   0.61920   0.18910   0.01267  Uiso   1.00
C59    C     0.69490   0.75480   0.36510   0.01267  Uiso   1.00
C60    C     0.74630   0.81010   0.43980   0.01267  Uiso   1.00
C61    C     0.13990   0.70280   0.37810   0.01267  Uiso   1.00
C62    C     0.06580   0.66820   0.31160   0.01267  Uiso   1.00
C63    C     0.13150   0.01280   0.87290   0.01267  Uiso   1.00
C64    C     0.21190   0.86050   0.56140   0.01267  Uiso   1.00
C65    C     0.13450   0.00330   0.69320   0.01267  Uiso   1.00
C66    C     0.22650   0.93290   0.60600   0.01267  Uiso   1.00
C67    C     0.37450   0.12680   0.69610   0.01267  Uiso   1.00
C68    C     0.19080   0.00230   0.67230   0.01267  Uiso   1.00
C69    C     0.17470   0.93490   0.62820   0.01267  Uiso   1.00
C70    C     0.20590   0.07950   0.01040   0.01267  Uiso   1.00
C71    C     0.16140   0.01050   0.94450   0.01267  Uiso   1.00
C72    C     0.28930   0.99590   0.62580   0.01267  Uiso   1.00
C73    C     0.06950   0.68870   0.25860   0.01267  Uiso   1.00
C74    C     0.30510   0.05990   0.67020   0.01267  Uiso   1.00
C75    C     0.25370   0.06380   0.69350   0.01267  Uiso   1.00
C76    C     0.86010   0.23820   0.56290   0.01267  Uiso   1.00
C77    C     0.93420   0.24580   0.60240   0.01267  Uiso   1.00
C78    C     0.86850   0.74140   0.88130   0.01267  Uiso   1.00
C79    C     0.78810   0.34950   0.64860   0.01267  Uiso   1.00
C80    C     0.86550   0.55870   0.86880   0.01267  Uiso   1.00
C81    C     0.77350   0.37950   0.70640   0.01267  Uiso   1.00
C82    C     0.62550   0.32160   0.75230   0.01267  Uiso   1.00
C83    C     0.80920   0.48150   0.81150   0.01267  Uiso   1.00
C84    C     0.82530   0.45350   0.76020   0.01267  Uiso   1.00
C85    C     0.79410   0.80450   0.87360   0.01267  Uiso   1.00
C86    C     0.83860   0.78310   0.84910   0.01267  Uiso   1.00
C87    C     0.71070   0.33650   0.70660   0.01267  Uiso   1.00
C88    C     0.93050   0.18910   0.61920   0.01267  Uiso   1.00
C89    C     0.69490   0.36510   0.75480   0.01267  Uiso   1.00
C90    C     0.74630   0.43980   0.81010   0.01267  Uiso   1.00
C91    C     0.67530   0.43710   0.29720   0.01267  Uiso   1.00
C92    C     0.64340   0.39760   0.33180   0.01267  Uiso   1.00
C93    C     0.86010   0.11870   0.98720   0.01267  Uiso   1.00
C94    C     0.70090   0.35140   0.13950   0.01267  Uiso   1.00
C95    C     0.68990   0.13120   0.99670   0.01267  Uiso   1.00
C96    C     0.67310   0.29360   0.06710   0.01267  Uiso   1.00
C97    C     0.56930   0.24770   0.87320   0.01267  Uiso   1.00
C98    C     0.67000   0.18850   0.99770   0.01267  Uiso   1.00
C99    C     0.69330   0.23980   0.06510   0.01267  Uiso   1.00
C100   C     0.93090   0.12640   0.92050   0.01267  Uiso   1.00
C101   C     0.93400   0.15090   0.98950   0.01267  Uiso   1.00
C102   C     0.62990   0.29340   0.00410   0.01267  Uiso   1.00
C103   C     0.56990   0.38080   0.31130   0.01267  Uiso   1.00
C104   C     0.61030   0.24520   0.94010   0.01267  Uiso   1.00
C105   C     0.62970   0.18990   0.93620   0.01267  Uiso   1.00
C106   C     0.32470   0.62190   0.76180   0.01267  Uiso   1.00
C107   C     0.35660   0.68840   0.75420   0.01267  Uiso   1.00
C108   C     0.13990   0.12710   0.25860   0.01267  Uiso   1.00
C109   C     0.29910   0.43860   0.65050   0.01267  Uiso   1.00
C110   C     0.31010   0.30680   0.44130   0.01267  Uiso   1.00
C111   C     0.32690   0.39400   0.62050   0.01267  Uiso   1.00
C112   C     0.43070   0.30390   0.67840   0.01267  Uiso   1.00
C113   C     0.33000   0.32770   0.51850   0.01267  Uiso   1.00
C114   C     0.30670   0.37180   0.54650   0.01267  Uiso   1.00
C115   C     0.06910   0.98960   0.19550   0.01267  Uiso   1.00
C116   C     0.06600   0.05550   0.21690   0.01267  Uiso   1.00
C117   C     0.37010   0.37420   0.66350   0.01267  Uiso   1.00
C118   C     0.43010   0.74140   0.81090   0.01267  Uiso   1.00
C119   C     0.38970   0.32980   0.63490   0.01267  Uiso   1.00
C120   C     0.37030   0.30650   0.56020   0.01267  Uiso   1.00
C121   C     0.31880   0.69380   0.69380   0.01267  Uiso   1.00
C122   C     0.54440   0.86320   0.86320   0.01267  Uiso   1.00
C123   C     0.46820   0.80770   0.80770   0.01267  Uiso   1.00
C124   C     0.68120   0.37500   0.37500   0.01267  Uiso   1.00
C125   C     0.45560   0.31880   0.31880   0.01267  Uiso   1.00
C126   C     0.53180   0.33950   0.33950   0.01267  Uiso   1.00
C127   C     0.00000   0.30620   0.62500   0.01267  Uiso   1.00
C128   C     0.00000   0.13680   0.68120   0.01267  Uiso   1.00
C129   C     0.00000   0.19230   0.66050   0.01267  Uiso   1.00
C130   C     0.00000   0.62500   0.30620   0.01267  Uiso   1.00
C131   C     0.00000   0.68120   0.13680   0.01267  Uiso   1.00
C132   C     1.00000   0.66050   0.19230   0.01267  Uiso   1.00
C133   C     0.00000   0.19190   0.05330   0.01267  Uiso   1.00
C134   C     0.00000   0.12600   0.85440   0.01267  Uiso   1.00
C135   C     0.00000   0.15170   0.92430   0.01267  Uiso   1.00
C136   C     0.00000   0.05330   0.19190   0.01267  Uiso   1.00
C137   C     0.00000   0.85440   0.12600   0.01267  Uiso   1.00
C138   C     0.00000   0.92430   0.15170   0.01267  Uiso   1.00
C139   C     0.13860   0.94670   0.94670   0.01267  Uiso   1.00
C140   C     0.27160   0.14560   0.14560   0.01267  Uiso   1.00
C141   C     0.22740   0.07570   0.07570   0.01267  Uiso   1.00
C142   C     0.86140   0.80810   0.80810   0.01267  Uiso   1.00
C143   C     0.72840   0.87400   0.87400   0.01267  Uiso   1.00
C144   C     0.77260   0.84830   0.84830   0.01267  Uiso   1.00
O1     O     0.31000   0.71140   0.45740   0.01267  Uiso   1.00
O2     O     0.25700   0.72010   0.57310   0.01267  Uiso   1.00
O3     O     0.36020   0.81350   0.61410   0.01267  Uiso   1.00
O4     O     0.93650   0.08740   0.79610   0.01267  Uiso   1.00
O5     O     0.27380   0.61400   0.46820   0.01267  Uiso   1.00
O6     O     0.33880   0.42080   0.26500   0.01267  Uiso   1.00
O7     O     0.20090   0.27640   0.12610   0.01267  Uiso   1.00
O8     O     0.44380   0.64750   0.25610   0.01267  Uiso   1.00
O9     O     0.26720   0.40770   0.32530   0.01267  Uiso   1.00
O10    O     0.45170   0.74730   0.32820   0.01267  Uiso   1.00
O11    O     0.34990   0.35130   0.14680   0.01267  Uiso   1.00
O12    O     0.57500   0.85300   0.91860   0.01267  Uiso   1.00
O13    O     0.13380   0.26960   0.18440   0.01267  Uiso   1.00
O14    O     0.69000   0.14740   0.40140   0.01267  Uiso   1.00
O15    O     0.74300   0.31610   0.46310   0.01267  Uiso   1.00
O16    O     0.63980   0.25390   0.45330   0.01267  Uiso   1.00
O17    O     0.06350   0.85960   0.15090   0.01267  Uiso   1.00
O18    O     0.72620   0.19440   0.34020   0.01267  Uiso   1.00
O19    O     0.66120   0.92620   0.08200   0.01267  Uiso   1.00
O20    O     0.79910   0.92520   0.07550   0.01267  Uiso   1.00
O21    O     0.55620   0.81230   0.20370   0.01267  Uiso   1.00
O22    O     0.73280   0.05810   0.14050   0.01267  Uiso   1.00
O23    O     0.54830   0.87650   0.29560   0.01267  Uiso   1.00
O24    O     0.65010   0.79690   0.00140   0.01267  Uiso   1.00
O25    O     0.42500   0.34360   0.27800   0.01267  Uiso   1.00
O26    O     0.86620   0.05060   0.13580   0.01267  Uiso   1.00
O27    O     0.25400   0.54260   0.85260   0.01267  Uiso   1.00
O28    O     0.14700   0.42690   0.68390   0.01267  Uiso   1.00
O29    O     0.19940   0.38590   0.74610   0.01267  Uiso   1.00
O30    O     0.29130   0.20390   0.14040   0.01267  Uiso   1.00
O31    O     0.14580   0.53180   0.80560   0.01267  Uiso   1.00
O32    O     0.15580   0.73500   0.07380   0.01267  Uiso   1.00
O33    O     0.15030   0.87390   0.07480   0.01267  Uiso   1.00
O34    O     0.39140   0.74390   0.18770   0.01267  Uiso   1.00
O35    O     0.08240   0.67470   0.94190   0.01267  Uiso   1.00
O36    O     0.41910   0.67180   0.12350   0.01267  Uiso   1.00
O37    O     0.20450   0.85320   0.20310   0.01267  Uiso   1.00
O38    O     0.93440   0.08140   0.65640   0.01267  Uiso   1.00
O39    O     0.08520   0.81560   0.94940   0.01267  Uiso   1.00
O40    O     0.74600   0.59860   0.28860   0.01267  Uiso   1.00
O41    O     0.85300   0.53690   0.27990   0.01267  Uiso   1.00
O42    O     0.80060   0.54670   0.18650   0.01267  Uiso   1.00
O43    O     0.70870   0.84910   0.91260   0.01267  Uiso   1.00
O44    O     0.85420   0.65980   0.38600   0.01267  Uiso   1.00
O45    O     0.84420   0.91800   0.57920   0.01267  Uiso   1.00
O46    O     0.84970   0.92450   0.72360   0.01267  Uiso   1.00
O47    O     0.60860   0.79630   0.35250   0.01267  Uiso   1.00
O48    O     0.91760   0.85950   0.59230   0.01267  Uiso   1.00
O49    O     0.58090   0.70440   0.25270   0.01267  Uiso   1.00
O50    O     0.79550   0.99860   0.64870   0.01267  Uiso   1.00
O51    O     0.06560   0.72200   0.14700   0.01267  Uiso   1.00
O52    O     0.91480   0.86420   0.73040   0.01267  Uiso   1.00
O53    O     0.25400   0.85260   0.54260   0.01267  Uiso   1.00
O54    O     0.14700   0.68390   0.42690   0.01267  Uiso   1.00
O55    O     0.19940   0.74610   0.38590   0.01267  Uiso   1.00
O56    O     0.29130   0.14040   0.20390   0.01267  Uiso   1.00
O57    O     0.14580   0.80560   0.53180   0.01267  Uiso   1.00
O58    O     0.15580   0.07380   0.73500   0.01267  Uiso   1.00
O59    O     0.15030   0.07480   0.87390   0.01267  Uiso   1.00
O60    O     0.39140   0.18770   0.74390   0.01267  Uiso   1.00
O61    O     0.08240   0.94190   0.67470   0.01267  Uiso   1.00
O62    O     0.41910   0.12350   0.67180   0.01267  Uiso   1.00
O63    O     0.20450   0.20310   0.85320   0.01267  Uiso   1.00
O64    O     0.93440   0.65640   0.08140   0.01267  Uiso   1.00
O65    O     0.08520   0.94940   0.81560   0.01267  Uiso   1.00
O66    O     0.74600   0.28860   0.59860   0.01267  Uiso   1.00
O67    O     0.85300   0.27990   0.53690   0.01267  Uiso   1.00
O68    O     0.80060   0.18650   0.54670   0.01267  Uiso   1.00
O69    O     0.70870   0.91260   0.84910   0.01267  Uiso   1.00
O70    O     0.85420   0.38600   0.65980   0.01267  Uiso   1.00
O71    O     0.84420   0.57920   0.91800   0.01267  Uiso   1.00
O72    O     0.84970   0.72360   0.92450   0.01267  Uiso   1.00
O73    O     0.60860   0.35250   0.79630   0.01267  Uiso   1.00
O74    O     0.91760   0.59230   0.85950   0.01267  Uiso   1.00
O75    O     0.58090   0.25270   0.70440   0.01267  Uiso   1.00
O76    O     0.79550   0.64870   0.99860   0.01267  Uiso   1.00
O77    O     0.06560   0.14700   0.72200   0.01267  Uiso   1.00
O78    O     0.91480   0.73040   0.86420   0.01267  Uiso   1.00
O79    O     0.69000   0.40140   0.14740   0.01267  Uiso   1.00
O80    O     0.74300   0.46310   0.31610   0.01267  Uiso   1.00
O81    O     0.63980   0.45330   0.25390   0.01267  Uiso   1.00
O82    O     0.06350   0.15090   0.85960   0.01267  Uiso   1.00
O83    O     0.72620   0.34020   0.19440   0.01267  Uiso   1.00
O84    O     0.66120   0.08200   0.92620   0.01267  Uiso   1.00
O85    O     0.79910   0.07550   0.92520   0.01267  Uiso   1.00
O86    O     0.55620   0.20370   0.81230   0.01267  Uiso   1.00
O87    O     0.73280   0.14050   0.05810   0.01267  Uiso   1.00
O88    O     0.54830   0.29560   0.87650   0.01267  Uiso   1.00
O89    O     0.65010   0.00140   0.79690   0.01267  Uiso   1.00
O90    O     0.42500   0.27800   0.34360   0.01267  Uiso   1.00
O91    O     0.86620   0.13580   0.05060   0.01267  Uiso   1.00
O92    O     0.31000   0.45740   0.71140   0.01267  Uiso   1.00
O93    O     0.25700   0.57310   0.72010   0.01267  Uiso   1.00
O94    O     0.36020   0.61410   0.81350   0.01267  Uiso   1.00
O95    O     0.93650   0.79610   0.08740   0.01267  Uiso   1.00
O96    O     0.27380   0.46820   0.61400   0.01267  Uiso   1.00
O97    O     0.33880   0.26500   0.42080   0.01267  Uiso   1.00
O98    O     0.20090   0.12610   0.27640   0.01267  Uiso   1.00
O99    O     0.44380   0.25610   0.64750   0.01267  Uiso   1.00
O100   O     0.26720   0.32530   0.40770   0.01267  Uiso   1.00
O101   O     0.45170   0.32820   0.74730   0.01267  Uiso   1.00
O102   O     0.34990   0.14680   0.35130   0.01267  Uiso   1.00
O103   O     0.57500   0.91860   0.85300   0.01267  Uiso   1.00
O104   O     0.13380   0.18440   0.26960   0.01267  Uiso   1.00
O105   O     0.36120   0.86120   0.50000   0.01267  Uiso   1.00
O106   O     0.63880   0.13880   0.50000   0.01267  Uiso   1.00
O107   O     0.36120   0.50000   0.86120   0.01267  Uiso   1.00
O108   O     0.63880   0.50000   0.13880   0.01267  Uiso   1.00
O109   O     0.27360   0.26790   0.26790   0.01267  Uiso   1.00
O110   O     0.12580   0.31230   0.31230   0.01267  Uiso   1.00
O111   O     0.72640   0.99430   0.99430   0.01267  Uiso   1.00
O112   O     0.87420   0.18650   0.18650   0.01267  Uiso   1.00
O113   O     0.00000   0.73210   0.00570   0.01267  Uiso   1.00
O114   O     0.00000   0.68770   0.81350   0.01267  Uiso   1.00
O115   O     0.00000   0.00570   0.73210   0.01267  Uiso   1.00
O116   O     0.00000   0.81350   0.68770   0.01267  Uiso   1.00
H49    H     0.87380   0.72510   0.55990   0.01267  Uiso   1.00
H50    H     0.81510   0.66650   0.56660   0.01267  Uiso   1.00
H51    H     0.78930   0.67740   0.49710   0.01267  Uiso   1.00
H52    H     0.83970   0.52700   0.44290   0.01267  Uiso   1.00
H53    H     0.76280   0.52300   0.40600   0.01267  Uiso   1.00
H54    H     0.78910   0.51490   0.47720   0.01267  Uiso   1.00
C145   C     0.83000   0.67800   0.53400   0.01267  Uiso   1.00
C146   C     0.80500   0.53900   0.45200   0.01267  Uiso   1.00
N1     N     0.84530   0.62130   0.49800   0.01267  Uiso   1.00
H55    H     0.12620   0.68610   0.85130   0.01267  Uiso   1.00
H56    H     0.18490   0.75150   0.85140   0.01267  Uiso   1.00
H57    H     0.21070   0.70780   0.88810   0.01267  Uiso   1.00
H58    H     0.16030   0.60320   0.68730   0.01267  Uiso   1.00
H59    H     0.23720   0.64320   0.76020   0.01267  Uiso   1.00
H60    H     0.21090   0.68810   0.72580   0.01267  Uiso   1.00
C147   C     0.17000   0.70400   0.84800   0.01267  Uiso   1.00
C148   C     0.19500   0.64700   0.73400   0.01267  Uiso   1.00
N2     N     0.15470   0.65270   0.77600   0.01267  Uiso   1.00
H61    H     0.16520   0.44010   0.31390   0.01267  Uiso   1.00
H62    H     0.09990   0.43340   0.24850   0.01267  Uiso   1.00
H63    H     0.18030   0.50290   0.29220   0.01267  Uiso   1.00
H64    H     0.08410   0.55710   0.39680   0.01267  Uiso   1.00
H65    H     0.11700   0.59400   0.35680   0.01267  Uiso   1.00
H66    H     0.03770   0.52280   0.31190   0.01267  Uiso   1.00
C149   C     0.14400   0.46600   0.29600   0.01267  Uiso   1.00
C150   C     0.08700   0.54800   0.35300   0.01267  Uiso   1.00
N3     N     0.12330   0.50200   0.34730   0.01267  Uiso   1.00
H67    H     0.83480   0.14870   0.27490   0.01267  Uiso   1.00
H68    H     0.90010   0.14860   0.33350   0.01267  Uiso   1.00
H69    H     0.81970   0.11190   0.32260   0.01267  Uiso   1.00
H70    H     0.91590   0.31270   0.47300   0.01267  Uiso   1.00
H71    H     0.88300   0.23980   0.47700   0.01267  Uiso   1.00
H72    H     0.96230   0.27420   0.48510   0.01267  Uiso   1.00
C151   C     0.85600   0.15200   0.32200   0.01267  Uiso   1.00
C152   C     0.91300   0.26600   0.46100   0.01267  Uiso   1.00
N4     N     0.87670   0.22400   0.37870   0.01267  Uiso   1.00
H73    H     0.16520   0.31390   0.44010   0.01267  Uiso   1.00
H74    H     0.09990   0.24850   0.43340   0.01267  Uiso   1.00
H75    H     0.18030   0.29220   0.50290   0.01267  Uiso   1.00
H76    H     0.08410   0.39680   0.55710   0.01267  Uiso   1.00
H77    H     0.11700   0.35680   0.59400   0.01267  Uiso   1.00
H78    H     0.03770   0.31190   0.52280   0.01267  Uiso   1.00
C153   C     0.14400   0.29600   0.46600   0.01267  Uiso   1.00
C154   C     0.08700   0.35300   0.54800   0.01267  Uiso   1.00
N5     N     0.12330   0.34730   0.50200   0.01267  Uiso   1.00
H79    H     0.83480   0.27490   0.14870   0.01267  Uiso   1.00
H80    H     0.90010   0.33350   0.14860   0.01267  Uiso   1.00
H81    H     0.81970   0.32260   0.11190   0.01267  Uiso   1.00
H82    H     0.91590   0.47300   0.31270   0.01267  Uiso   1.00
H83    H     0.88300   0.47700   0.23980   0.01267  Uiso   1.00
H84    H     0.96230   0.48510   0.27420   0.01267  Uiso   1.00
C155   C     0.85600   0.32200   0.15200   0.01267  Uiso   1.00
C156   C     0.91300   0.46100   0.26600   0.01267  Uiso   1.00
N6     N     0.87670   0.37870   0.22400   0.01267  Uiso   1.00
H85    H     0.12620   0.85130   0.68610   0.01267  Uiso   1.00
H86    H     0.18490   0.85140   0.75150   0.01267  Uiso   1.00
H87    H     0.21070   0.88810   0.70780   0.01267  Uiso   1.00
H88    H     0.16030   0.68730   0.60320   0.01267  Uiso   1.00
H89    H     0.23720   0.76020   0.64320   0.01267  Uiso   1.00
H90    H     0.21090   0.72580   0.68810   0.01267  Uiso   1.00
C157   C     0.17000   0.84800   0.70400   0.01267  Uiso   1.00
C158   C     0.19500   0.73400   0.64700   0.01267  Uiso   1.00
N7     N     0.15470   0.77600   0.65270   0.01267  Uiso   1.00
H91    H     0.87380   0.55990   0.72510   0.01267  Uiso   1.00
H92    H     0.81510   0.56660   0.66650   0.01267  Uiso   1.00
H93    H     0.78930   0.49710   0.67740   0.01267  Uiso   1.00
H94    H     0.83970   0.44290   0.52700   0.01267  Uiso   1.00
H95    H     0.76280   0.40600   0.52300   0.01267  Uiso   1.00
H96    H     0.78910   0.47720   0.51490   0.01267  Uiso   1.00
C159   C     0.83000   0.53400   0.67800   0.01267  Uiso   1.00
C160   C     0.80500   0.45200   0.53900   0.01267  Uiso   1.00
N8     N     0.84530   0.49800   0.62130   0.01267  Uiso   1.00
