data_IRAYUW_charged
_audit_creation_date              2014-07-02
_audit_creation_method            'Materials Studio'
_symmetry_space_group_name_H-M    'P1'
_symmetry_Int_Tables_number       1
_symmetry_cell_setting            triclinic
loop_
_symmetry_equiv_pos_as_xyz
  x,y,z
_cell_length_a                    10.1577
_cell_length_b                    14.3166
_cell_length_c                    18.3548
_cell_angle_alpha                 90.0001
_cell_angle_beta                  90.0000
_cell_angle_gamma                 90.0000
loop_
_atom_site_label
_atom_site_type_symbol
_atom_site_fract_x
_atom_site_fract_y
_atom_site_fract_z
_atom_site_U_iso_or_equiv
_atom_site_adp_type
_atom_site_occupancy
V1     V     0.34846   0.74664   0.19626   0.01267  Uiso   1.00
V2     V     0.18348   0.75742   0.89601   0.01267  Uiso   1.00
V3     V     0.86244   0.74662   0.10755   0.01267  Uiso   1.00
V4     V     0.69951   0.71165   0.80323   0.01267  Uiso   1.00
V5     V     0.84846   0.75336   0.30374   0.01267  Uiso   1.00
V6     V     0.68348   0.74258   0.60399   0.01267  Uiso   1.00
V7     V     0.36244   0.75338   0.39245   0.01267  Uiso   1.00
V8     V     0.19951   0.78835   0.69677   0.01267  Uiso   1.00
V9     V     0.65154   0.25336   0.80374   0.01267  Uiso   1.00
V10    V     0.81652   0.24258   0.10399   0.01267  Uiso   1.00
V11    V     0.13756   0.25338   0.89245   0.01267  Uiso   1.00
V12    V     0.30049   0.28835   0.19677   0.01267  Uiso   1.00
V13    V     0.15154   0.24664   0.69626   0.01267  Uiso   1.00
V14    V     0.31652   0.25742   0.39601   0.01267  Uiso   1.00
V15    V     0.63756   0.24662   0.60755   0.01267  Uiso   1.00
V16    V     0.80049   0.21165   0.30323   0.01267  Uiso   1.00
V17    V     0.00000   0.00000   0.00000   0.01267  Uiso   1.00
V18    V     0.50000   0.50000   0.50000   0.01267  Uiso   1.00
P1     P     0.88820   0.80175   0.93325   0.01267  Uiso   1.00
P2     P     0.42850   0.83310   0.81360   0.01267  Uiso   1.00
P3     P     0.13720   0.65378   0.30192   0.01267  Uiso   1.00
P4     P     0.14300   0.81513   0.06937   0.01267  Uiso   1.00
P5     P     0.38820   0.69825   0.56675   0.01267  Uiso   1.00
P6     P     0.92850   0.66690   0.68640   0.01267  Uiso   1.00
P7     P     0.63720   0.84622   0.19808   0.01267  Uiso   1.00
P8     P     0.64300   0.68487   0.43063   0.01267  Uiso   1.00
P9     P     0.11180   0.19825   0.06675   0.01267  Uiso   1.00
P10    P     0.57150   0.16690   0.18640   0.01267  Uiso   1.00
P11    P     0.86280   0.34622   0.69808   0.01267  Uiso   1.00
P12    P     0.85700   0.18487   0.93063   0.01267  Uiso   1.00
P13    P     0.61180   0.30175   0.43325   0.01267  Uiso   1.00
P14    P     0.07150   0.33310   0.31360   0.01267  Uiso   1.00
P15    P     0.36280   0.15378   0.80192   0.01267  Uiso   1.00
P16    P     0.35700   0.31513   0.56937   0.01267  Uiso   1.00
H1     H     0.76510   0.95970   0.03060   0.01267  Uiso   1.00
H2     H     0.80790   0.03260   0.08200   0.01267  Uiso   1.00
H3     H     0.26510   0.54030   0.46940   0.01267  Uiso   1.00
H4     H     0.30790   0.46740   0.41800   0.01267  Uiso   1.00
H5     H     0.23490   0.04030   0.96940   0.01267  Uiso   1.00
H6     H     0.19210   0.96740   0.91800   0.01267  Uiso   1.00
H7     H     0.73490   0.45970   0.53060   0.01267  Uiso   1.00
H8     H     0.69210   0.53260   0.58200   0.01267  Uiso   1.00
O1     O     0.82460   0.78250   0.00530   0.01267  Uiso   1.00
O2     O     0.00060   0.73150   0.91870   0.01267  Uiso   1.00
O3     O     0.78440   0.79330   0.87410   0.01267  Uiso   1.00
O4     O     0.94270   0.90040   0.93030   0.01267  Uiso   1.00
O5     O     0.32430   0.84580   0.87240   0.01267  Uiso   1.00
O6     O     0.36950   0.78820   0.74520   0.01267  Uiso   1.00
O7     O     0.48720   0.92920   0.79470   0.01267  Uiso   1.00
O8     O     0.54150   0.77260   0.84140   0.01267  Uiso   1.00
O9     O     0.17680   0.72670   0.24320   0.01267  Uiso   1.00
O10    O     0.17530   0.55510   0.27490   0.01267  Uiso   1.00
O11    O     0.20930   0.67320   0.37340   0.01267  Uiso   1.00
O12    O     0.05490   0.73210   0.08520   0.01267  Uiso   1.00
O13    O     0.21060   0.80350   0.99540   0.01267  Uiso   1.00
O14    O     0.25110   0.82730   0.12850   0.01267  Uiso   1.00
O15    O     0.05980   0.90270   0.07130   0.01267  Uiso   1.00
O16    O     0.68540   0.60650   0.83190   0.01267  Uiso   1.00
O17    O     0.24750   0.65660   0.89140   0.01267  Uiso   1.00
O18    O     0.42610   0.71840   0.29390   0.01267  Uiso   1.00
O19    O     0.11580   0.78510   0.79420   0.01267  Uiso   1.00
O20    O     0.81360   0.64280   0.11550   0.01267  Uiso   1.00
O21    O     0.38680   0.65730   0.15070   0.01267  Uiso   1.00
O22    O     0.82410   0.99660   0.04630   0.01267  Uiso   1.00
O23    O     0.98790   0.65820   0.31560   0.01267  Uiso   1.00
O24    O     0.32460   0.71750   0.49470   0.01267  Uiso   1.00
O25    O     0.50060   0.76850   0.58130   0.01267  Uiso   1.00
O26    O     0.28440   0.70670   0.62590   0.01267  Uiso   1.00
O27    O     0.44270   0.59960   0.56970   0.01267  Uiso   1.00
O28    O     0.82430   0.65420   0.62760   0.01267  Uiso   1.00
O29    O     0.86950   0.71180   0.75480   0.01267  Uiso   1.00
O30    O     0.98720   0.57080   0.70530   0.01267  Uiso   1.00
O31    O     0.04150   0.72740   0.65860   0.01267  Uiso   1.00
O32    O     0.67680   0.77330   0.25680   0.01267  Uiso   1.00
O33    O     0.67530   0.94490   0.22510   0.01267  Uiso   1.00
O34    O     0.70930   0.82680   0.12660   0.01267  Uiso   1.00
O35    O     0.55490   0.76790   0.41480   0.01267  Uiso   1.00
O36    O     0.71060   0.69650   0.50460   0.01267  Uiso   1.00
O37    O     0.75110   0.67270   0.37150   0.01267  Uiso   1.00
O38    O     0.55980   0.59730   0.42870   0.01267  Uiso   1.00
O39    O     0.18540   0.89350   0.66810   0.01267  Uiso   1.00
O40    O     0.74750   0.84340   0.60860   0.01267  Uiso   1.00
O41    O     0.92610   0.78160   0.20610   0.01267  Uiso   1.00
O42    O     0.61580   0.71490   0.70580   0.01267  Uiso   1.00
O43    O     0.31360   0.85720   0.38450   0.01267  Uiso   1.00
O44    O     0.88680   0.84270   0.34930   0.01267  Uiso   1.00
O45    O     0.32410   0.50340   0.45370   0.01267  Uiso   1.00
O46    O     0.48790   0.84180   0.18440   0.01267  Uiso   1.00
O47    O     0.17540   0.21750   0.99470   0.01267  Uiso   1.00
O48    O     0.99940   0.26850   0.08130   0.01267  Uiso   1.00
O49    O     0.21560   0.20670   0.12590   0.01267  Uiso   1.00
O50    O     0.05730   0.09960   0.06970   0.01267  Uiso   1.00
O51    O     0.67570   0.15420   0.12760   0.01267  Uiso   1.00
O52    O     0.63050   0.21180   0.25480   0.01267  Uiso   1.00
O53    O     0.51280   0.07080   0.20530   0.01267  Uiso   1.00
O54    O     0.45850   0.22740   0.15860   0.01267  Uiso   1.00
O55    O     0.82320   0.27330   0.75680   0.01267  Uiso   1.00
O56    O     0.82470   0.44490   0.72510   0.01267  Uiso   1.00
O57    O     0.79070   0.32680   0.62660   0.01267  Uiso   1.00
O58    O     0.94510   0.26790   0.91480   0.01267  Uiso   1.00
O59    O     0.78940   0.19650   0.00460   0.01267  Uiso   1.00
O60    O     0.74890   0.17270   0.87150   0.01267  Uiso   1.00
O61    O     0.94020   0.09730   0.92870   0.01267  Uiso   1.00
O62    O     0.31460   0.39350   0.16810   0.01267  Uiso   1.00
O63    O     0.75250   0.34340   0.10860   0.01267  Uiso   1.00
O64    O     0.57390   0.28160   0.70610   0.01267  Uiso   1.00
O65    O     0.88420   0.21490   0.20580   0.01267  Uiso   1.00
O66    O     0.18640   0.35720   0.88450   0.01267  Uiso   1.00
O67    O     0.61320   0.34270   0.84930   0.01267  Uiso   1.00
O68    O     0.17590   0.00340   0.95370   0.01267  Uiso   1.00
O69    O     0.01210   0.34180   0.68440   0.01267  Uiso   1.00
O70    O     0.67540   0.28250   0.50530   0.01267  Uiso   1.00
O71    O     0.49940   0.23150   0.41870   0.01267  Uiso   1.00
O72    O     0.71560   0.29330   0.37410   0.01267  Uiso   1.00
O73    O     0.55730   0.40040   0.43030   0.01267  Uiso   1.00
O74    O     0.17570   0.34580   0.37240   0.01267  Uiso   1.00
O75    O     0.13050   0.28820   0.24520   0.01267  Uiso   1.00
O76    O     0.01280   0.42920   0.29470   0.01267  Uiso   1.00
O77    O     0.95850   0.27260   0.34140   0.01267  Uiso   1.00
O78    O     0.32320   0.22670   0.74320   0.01267  Uiso   1.00
O79    O     0.32470   0.05510   0.77490   0.01267  Uiso   1.00
O80    O     0.29070   0.17320   0.87340   0.01267  Uiso   1.00
O81    O     0.44510   0.23210   0.58520   0.01267  Uiso   1.00
O82    O     0.28940   0.30350   0.49540   0.01267  Uiso   1.00
O83    O     0.24890   0.32730   0.62850   0.01267  Uiso   1.00
O84    O     0.44020   0.40270   0.57130   0.01267  Uiso   1.00
O85    O     0.81460   0.10650   0.33190   0.01267  Uiso   1.00
O86    O     0.25250   0.15660   0.39140   0.01267  Uiso   1.00
O87    O     0.07390   0.21840   0.79390   0.01267  Uiso   1.00
O88    O     0.38420   0.28510   0.29420   0.01267  Uiso   1.00
O89    O     0.68640   0.14280   0.61550   0.01267  Uiso   1.00
O90    O     0.11320   0.15730   0.65070   0.01267  Uiso   1.00
O91    O     0.67590   0.49660   0.54630   0.01267  Uiso   1.00
O92    O     0.51210   0.15820   0.81560   0.01267  Uiso   1.00
H9     H     0.48830   0.48250   0.33490   0.01267  Uiso   1.00
H10    H     0.39510   0.46280   0.27690   0.01267  Uiso   1.00
H11    H     0.42090   0.55880   0.29830   0.01267  Uiso   1.00
H12    H     0.76890   0.54420   0.33230   0.01267  Uiso   1.00
H13    H     0.83190   0.45510   0.31740   0.01267  Uiso   1.00
H14    H     0.70920   0.45820   0.35810   0.01267  Uiso   1.00
H15    H     0.73860   0.50580   0.21950   0.01267  Uiso   1.00
H16    H     0.68220   0.41060   0.24490   0.01267  Uiso   1.00
H17    H     0.52910   0.47350   0.19840   0.01267  Uiso   1.00
H18    H     0.56620   0.57240   0.22690   0.01267  Uiso   1.00
C1     C     0.68320   0.47680   0.25620   0.01267  Uiso   1.00
C2     C     0.55900   0.50780   0.24120   0.01267  Uiso   1.00
N1     N     0.45640   0.50240   0.29250   0.01267  Uiso   1.00
N2     N     0.75500   0.48430   0.32210   0.01267  Uiso   1.00
H19    H     0.98830   0.01750   0.16510   0.01267  Uiso   1.00
H20    H     0.89510   0.03720   0.22310   0.01267  Uiso   1.00
H21    H     0.92090   0.94120   0.20170   0.01267  Uiso   1.00
H22    H     0.26890   0.95580   0.16770   0.01267  Uiso   1.00
H23    H     0.33190   0.04490   0.18260   0.01267  Uiso   1.00
H24    H     0.20920   0.04180   0.14190   0.01267  Uiso   1.00
H25    H     0.23860   0.99420   0.28050   0.01267  Uiso   1.00
H26    H     0.18220   0.08940   0.25510   0.01267  Uiso   1.00
H27    H     0.02910   0.02650   0.30160   0.01267  Uiso   1.00
H28    H     0.06620   0.92760   0.27310   0.01267  Uiso   1.00
C3     C     0.18320   0.02320   0.24380   0.01267  Uiso   1.00
C4     C     0.05900   0.99220   0.25880   0.01267  Uiso   1.00
N3     N     0.95640   0.99760   0.20750   0.01267  Uiso   1.00
N4     N     0.25500   0.01570   0.17790   0.01267  Uiso   1.00
H29    H     0.51170   0.51750   0.66510   0.01267  Uiso   1.00
H30    H     0.60490   0.53720   0.72310   0.01267  Uiso   1.00
H31    H     0.57910   0.44120   0.70170   0.01267  Uiso   1.00
H32    H     0.23110   0.45580   0.66770   0.01267  Uiso   1.00
H33    H     0.16810   0.54490   0.68260   0.01267  Uiso   1.00
H34    H     0.29080   0.54180   0.64190   0.01267  Uiso   1.00
H35    H     0.26140   0.49420   0.78050   0.01267  Uiso   1.00
H36    H     0.31780   0.58940   0.75510   0.01267  Uiso   1.00
H37    H     0.47090   0.52650   0.80160   0.01267  Uiso   1.00
H38    H     0.43380   0.42760   0.77310   0.01267  Uiso   1.00
C5     C     0.31680   0.52320   0.74380   0.01267  Uiso   1.00
C6     C     0.44100   0.49220   0.75880   0.01267  Uiso   1.00
N5     N     0.54360   0.49760   0.70750   0.01267  Uiso   1.00
N6     N     0.24500   0.51570   0.67790   0.01267  Uiso   1.00
H39    H     0.01170   0.98250   0.83490   0.01267  Uiso   1.00
H40    H     0.10490   0.96280   0.77690   0.01267  Uiso   1.00
H41    H     0.07910   0.05880   0.79830   0.01267  Uiso   1.00
H42    H     0.73110   0.04420   0.83230   0.01267  Uiso   1.00
H43    H     0.66810   0.95510   0.81740   0.01267  Uiso   1.00
H44    H     0.79080   0.95820   0.85810   0.01267  Uiso   1.00
H45    H     0.76140   0.00580   0.71950   0.01267  Uiso   1.00
H46    H     0.81780   0.91060   0.74490   0.01267  Uiso   1.00
H47    H     0.97090   0.97350   0.69840   0.01267  Uiso   1.00
H48    H     0.93380   0.07240   0.72690   0.01267  Uiso   1.00
C7     C     0.81680   0.97680   0.75620   0.01267  Uiso   1.00
C8     C     0.94100   0.00780   0.74120   0.01267  Uiso   1.00
N7     N     0.04360   0.00240   0.79250   0.01267  Uiso   1.00
N8     N     0.74500   0.98430   0.82210   0.01267  Uiso   1.00
