data_ISEQIH_clean
_audit_creation_date              2014-07-02
_audit_creation_method            'Materials Studio'
_symmetry_space_group_name_H-M    'P1'
_symmetry_Int_Tables_number       1
_symmetry_cell_setting            triclinic
loop_
_symmetry_equiv_pos_as_xyz
  x,y,z
_cell_length_a                    5.9466
_cell_length_b                    10.2247
_cell_length_c                    16.6496
_cell_angle_alpha                 72.2130
_cell_angle_beta                  79.7180
_cell_angle_gamma                 89.7910
loop_
_atom_site_label
_atom_site_type_symbol
_atom_site_fract_x
_atom_site_fract_y
_atom_site_fract_z
_atom_site_U_iso_or_equiv
_atom_site_adp_type
_atom_site_occupancy
Ca1    Ca    0.75595   0.87952   0.99633   0.01267  Uiso   1.00
Ca2    Ca    0.05062   0.18055   0.39568   0.01267  Uiso   1.00
Ca3    Ca    0.45185   0.57902   0.60335   0.01267  Uiso   1.00
Ca4    Ca    0.24405   0.12048   0.00367   0.01267  Uiso   1.00
Ca5    Ca    0.94938   0.81945   0.60432   0.01267  Uiso   1.00
Ca6    Ca    0.54815   0.42098   0.39665   0.01267  Uiso   1.00
H1     H     0.29600   0.35250   0.74280   0.01267  Uiso   1.00
H2     H     0.15810   0.01870   0.35960   0.01267  Uiso   1.00
H3     H     0.75790   0.24920   0.79220   0.01267  Uiso   1.00
H4     H     0.91670   0.13760   0.76580   0.01267  Uiso   1.00
H5     H     0.01930   0.19030   0.63410   0.01267  Uiso   1.00
H6     H     0.84430   0.30800   0.60930   0.01267  Uiso   1.00
H7     H     0.48760   0.82030   0.37060   0.01267  Uiso   1.00
H8     H     0.65910   0.91640   0.39410   0.01267  Uiso   1.00
H9     H     0.74190   0.02900   0.20930   0.01267  Uiso   1.00
H10    H     0.58510   0.89020   0.24050   0.01267  Uiso   1.00
H11    H     0.70400   0.64750   0.25720   0.01267  Uiso   1.00
H12    H     0.84190   0.98130   0.64040   0.01267  Uiso   1.00
H13    H     0.24210   0.75080   0.20780   0.01267  Uiso   1.00
H14    H     0.08330   0.86240   0.23420   0.01267  Uiso   1.00
H15    H     0.98070   0.80970   0.36590   0.01267  Uiso   1.00
H16    H     0.15570   0.69200   0.39070   0.01267  Uiso   1.00
H17    H     0.51240   0.17970   0.62940   0.01267  Uiso   1.00
H18    H     0.34090   0.08360   0.60590   0.01267  Uiso   1.00
H19    H     0.25810   0.97100   0.79070   0.01267  Uiso   1.00
H20    H     0.41490   0.10980   0.75950   0.01267  Uiso   1.00
C1     C     0.02080   0.20280   0.85850   0.01267  Uiso   1.00
C2     C     0.91910   0.22600   0.77860   0.01267  Uiso   1.00
C3     C     0.03540   0.33740   0.69580   0.01267  Uiso   1.00
C4     C     0.00320   0.29090   0.61850   0.01267  Uiso   1.00
C5     C     0.16310   0.35760   0.53430   0.01267  Uiso   1.00
C6     C     0.92290   0.47570   0.68750   0.01267  Uiso   1.00
C7     C     0.33840   0.89400   0.46740   0.01267  Uiso   1.00
C8     C     0.50110   0.90700   0.38460   0.01267  Uiso   1.00
C9     C     0.46730   0.02740   0.30610   0.01267  Uiso   1.00
C10    C     0.58120   0.99160   0.22500   0.01267  Uiso   1.00
C11    C     0.47250   0.04220   0.14550   0.01267  Uiso   1.00
C12    C     0.57930   0.15960   0.31080   0.01267  Uiso   1.00
C13    C     0.97920   0.79720   0.14150   0.01267  Uiso   1.00
C14    C     0.08090   0.77400   0.22140   0.01267  Uiso   1.00
C15    C     0.96460   0.66260   0.30420   0.01267  Uiso   1.00
C16    C     0.99680   0.70910   0.38150   0.01267  Uiso   1.00
C17    C     0.83690   0.64240   0.46570   0.01267  Uiso   1.00
C18    C     0.07710   0.52430   0.31250   0.01267  Uiso   1.00
C19    C     0.66160   0.10600   0.53260   0.01267  Uiso   1.00
C20    C     0.49890   0.09300   0.61540   0.01267  Uiso   1.00
C21    C     0.53270   0.97260   0.69390   0.01267  Uiso   1.00
C22    C     0.41880   0.00840   0.77500   0.01267  Uiso   1.00
C23    C     0.52750   0.95780   0.85450   0.01267  Uiso   1.00
C24    C     0.42070   0.84040   0.68920   0.01267  Uiso   1.00
O1     O     0.17580   0.28350   0.86130   0.01267  Uiso   1.00
O2     O     0.94980   0.09760   0.92010   0.01267  Uiso   1.00
O3     O     0.18800   0.29360   0.48040   0.01267  Uiso   1.00
O4     O     0.26690   0.47130   0.52050   0.01267  Uiso   1.00
O5     O     0.04900   0.58160   0.67370   0.01267  Uiso   1.00
O6     O     0.71070   0.47130   0.69360   0.01267  Uiso   1.00
O7     O     0.27490   0.35320   0.69410   0.01267  Uiso   1.00
O8     O     0.23470   0.99260   0.48130   0.01267  Uiso   1.00
O9     O     0.31060   0.77610   0.52180   0.01267  Uiso   1.00
O10    O     0.54810   0.00160   0.08300   0.01267  Uiso   1.00
O11    O     0.31060   0.12020   0.14490   0.01267  Uiso   1.00
O12    O     0.45410   0.25420   0.32220   0.01267  Uiso   1.00
O13    O     0.79210   0.16440   0.30340   0.01267  Uiso   1.00
O14    O     0.22710   0.04100   0.30830   0.01267  Uiso   1.00
O15    O     0.82420   0.71650   0.13870   0.01267  Uiso   1.00
O16    O     0.05020   0.90240   0.07990   0.01267  Uiso   1.00
O17    O     0.81200   0.70640   0.51960   0.01267  Uiso   1.00
O18    O     0.73310   0.52870   0.47950   0.01267  Uiso   1.00
O19    O     0.95100   0.41840   0.32630   0.01267  Uiso   1.00
O20    O     0.28930   0.52870   0.30640   0.01267  Uiso   1.00
O21    O     0.72510   0.64680   0.30590   0.01267  Uiso   1.00
O22    O     0.76530   0.00740   0.51870   0.01267  Uiso   1.00
O23    O     0.68940   0.22390   0.47820   0.01267  Uiso   1.00
O24    O     0.45190   0.99840   0.91700   0.01267  Uiso   1.00
O25    O     0.68940   0.87980   0.85510   0.01267  Uiso   1.00
O26    O     0.54590   0.74580   0.67780   0.01267  Uiso   1.00
O27    O     0.20790   0.83560   0.69660   0.01267  Uiso   1.00
O28    O     0.77290   0.95900   0.69170   0.01267  Uiso   1.00
