data_ISOHEE_clean
_audit_creation_date              2014-07-02
_audit_creation_method            'Materials Studio'
_symmetry_space_group_name_H-M    'P1'
_symmetry_Int_Tables_number       1
_symmetry_cell_setting            triclinic
loop_
_symmetry_equiv_pos_as_xyz
  x,y,z
_cell_length_a                    10.0700
_cell_length_b                    11.3830
_cell_length_c                    13.9360
_cell_angle_alpha                 90.0000
_cell_angle_beta                  101.9550
_cell_angle_gamma                 90.0000
loop_
_atom_site_label
_atom_site_type_symbol
_atom_site_fract_x
_atom_site_fract_y
_atom_site_fract_z
_atom_site_U_iso_or_equiv
_atom_site_adp_type
_atom_site_occupancy
Zn1    Zn    0.37430   0.00000   0.59954   0.01267  Uiso   1.00
Zn2    Zn    0.62570   0.00000   0.40046   0.01267  Uiso   1.00
H1     H     0.52110   0.78890   0.71000   0.01267  Uiso   1.00
H2     H     0.53110   0.59070   0.71060   0.01267  Uiso   1.00
H3     H     0.21850   0.59290   0.48560   0.01267  Uiso   1.00
H4     H     0.22760   0.78860   0.48630   0.01267  Uiso   1.00
H5     H     0.47890   0.78890   0.29000   0.01267  Uiso   1.00
H6     H     0.46890   0.59070   0.28940   0.01267  Uiso   1.00
H7     H     0.78150   0.59290   0.51440   0.01267  Uiso   1.00
H8     H     0.77240   0.78860   0.51370   0.01267  Uiso   1.00
H9     H     0.47890   0.21110   0.29000   0.01267  Uiso   1.00
H10    H     0.46890   0.40930   0.28940   0.01267  Uiso   1.00
H11    H     0.78150   0.40710   0.51440   0.01267  Uiso   1.00
H12    H     0.77240   0.21140   0.51370   0.01267  Uiso   1.00
H13    H     0.52110   0.21110   0.71000   0.01267  Uiso   1.00
H14    H     0.53110   0.40930   0.71060   0.01267  Uiso   1.00
H15    H     0.21850   0.40710   0.48560   0.01267  Uiso   1.00
H16    H     0.22760   0.21140   0.48630   0.01267  Uiso   1.00
H17    H     0.91610   0.00000   0.60070   0.01267  Uiso   1.00
H18    H     0.14710   0.00000   0.87260   0.01267  Uiso   1.00
H19    H     0.74110   0.00000   0.83500   0.01267  Uiso   1.00
H20    H     0.08390   0.00000   0.39930   0.01267  Uiso   1.00
H21    H     0.85290   0.00000   0.12740   0.01267  Uiso   1.00
H22    H     0.25890   0.00000   0.16500   0.01267  Uiso   1.00
C1     C     0.46100   0.74840   0.66170   0.01267  Uiso   1.00
C2     C     0.46640   0.62880   0.66360   0.01267  Uiso   1.00
C3     C     0.37580   0.56370   0.59570   0.01267  Uiso   1.00
C4     C     0.28520   0.63020   0.53160   0.01267  Uiso   1.00
C5     C     0.29000   0.74820   0.53320   0.01267  Uiso   1.00
C6     C     0.53900   0.74840   0.33830   0.01267  Uiso   1.00
C7     C     0.53360   0.62880   0.33640   0.01267  Uiso   1.00
C8     C     0.62420   0.56370   0.40430   0.01267  Uiso   1.00
C9     C     0.71480   0.63020   0.46840   0.01267  Uiso   1.00
C10    C     0.71000   0.74820   0.46680   0.01267  Uiso   1.00
C11    C     0.53900   0.25160   0.33830   0.01267  Uiso   1.00
C12    C     0.53360   0.37120   0.33640   0.01267  Uiso   1.00
C13    C     0.62420   0.43630   0.40430   0.01267  Uiso   1.00
C14    C     0.71480   0.36980   0.46840   0.01267  Uiso   1.00
C15    C     0.71000   0.25180   0.46680   0.01267  Uiso   1.00
C16    C     0.46100   0.25160   0.66170   0.01267  Uiso   1.00
C17    C     0.46640   0.37120   0.66360   0.01267  Uiso   1.00
C18    C     0.37580   0.43630   0.59570   0.01267  Uiso   1.00
C19    C     0.28520   0.36980   0.53160   0.01267  Uiso   1.00
C20    C     0.29000   0.25180   0.53320   0.01267  Uiso   1.00
C21    C     0.66840   0.00000   0.63880   0.01267  Uiso   1.00
C22    C     0.80640   0.00000   0.70570   0.01267  Uiso   1.00
C23    C     0.92310   0.00000   0.66830   0.01267  Uiso   1.00
C24    C     0.05210   0.00000   0.73060   0.01267  Uiso   1.00
C25    C     0.17830   0.00000   0.68900   0.01267  Uiso   1.00
C26    C     0.06220   0.00000   0.83080   0.01267  Uiso   1.00
C27    C     0.94470   0.00000   0.86970   0.01267  Uiso   1.00
C28    C     0.81870   0.00000   0.80850   0.01267  Uiso   1.00
C29    C     0.33160   0.00000   0.36120   0.01267  Uiso   1.00
C30    C     0.19360   0.00000   0.29430   0.01267  Uiso   1.00
C31    C     0.07690   0.00000   0.33170   0.01267  Uiso   1.00
C32    C     0.94790   0.00000   0.26940   0.01267  Uiso   1.00
C33    C     0.82170   0.00000   0.31100   0.01267  Uiso   1.00
C34    C     0.93780   0.00000   0.16920   0.01267  Uiso   1.00
C35    C     0.05530   0.00000   0.13030   0.01267  Uiso   1.00
C36    C     0.18130   0.00000   0.19150   0.01267  Uiso   1.00
N1     N     0.37690   0.81030   0.59650   0.01267  Uiso   1.00
N2     N     0.62310   0.81030   0.40350   0.01267  Uiso   1.00
N3     N     0.62310   0.18970   0.40350   0.01267  Uiso   1.00
N4     N     0.37690   0.18970   0.59650   0.01267  Uiso   1.00
N5     N     0.94410   0.00000   0.97240   0.01267  Uiso   1.00
N6     N     0.05590   0.00000   0.02760   0.01267  Uiso   1.00
O1     O     0.56780   0.00000   0.68010   0.01267  Uiso   1.00
O2     O     0.66260   0.00000   0.55090   0.01267  Uiso   1.00
O3     O     0.16440   0.00000   0.59820   0.01267  Uiso   1.00
O4     O     0.29120   0.00000   0.74570   0.01267  Uiso   1.00
O5     O     0.43220   0.00000   0.31990   0.01267  Uiso   1.00
O6     O     0.33740   0.00000   0.44910   0.01267  Uiso   1.00
O7     O     0.83560   0.00000   0.40180   0.01267  Uiso   1.00
O8     O     0.70880   0.00000   0.25430   0.01267  Uiso   1.00
