data_IWEPUW_clean
_audit_creation_date              2014-07-02
_audit_creation_method            'Materials Studio'
_symmetry_space_group_name_H-M    'P1'
_symmetry_Int_Tables_number       1
_symmetry_cell_setting            triclinic
loop_
_symmetry_equiv_pos_as_xyz
  x,y,z
_cell_length_a                    9.6065
_cell_length_b                    10.9961
_cell_length_c                    10.9961
_cell_angle_alpha                 109.4030
_cell_angle_beta                  108.0670
_cell_angle_gamma                 71.9330
loop_
_atom_site_label
_atom_site_type_symbol
_atom_site_fract_x
_atom_site_fract_y
_atom_site_fract_z
_atom_site_U_iso_or_equiv
_atom_site_adp_type
_atom_site_occupancy
Mn1    Mn    0.25000   0.04905   0.04905   0.01267  Uiso   1.00
Mn2    Mn    0.75000   0.95095   0.95095   0.01267  Uiso   1.00
H1     H     0.61920   0.27230   0.86810   0.01267  Uiso   1.00
H2     H     0.20020   0.36380   0.91860   0.01267  Uiso   1.00
H3     H     0.32670   0.60260   0.78640   0.01267  Uiso   1.00
H4     H     0.95820   0.45290   0.76910   0.01267  Uiso   1.00
H5     H     0.12120   0.76980   0.92940   0.01267  Uiso   1.00
H6     H     0.67740   0.61050   0.78590   0.01267  Uiso   1.00
H7     H     0.88080   0.86810   0.27230   0.01267  Uiso   1.00
H8     H     0.29980   0.91860   0.36380   0.01267  Uiso   1.00
H9     H     0.17330   0.78640   0.60260   0.01267  Uiso   1.00
H10    H     0.54180   0.76910   0.45290   0.01267  Uiso   1.00
H11    H     0.37880   0.92940   0.76980   0.01267  Uiso   1.00
H12    H     0.82260   0.78590   0.61050   0.01267  Uiso   1.00
H13    H     0.38080   0.72770   0.13190   0.01267  Uiso   1.00
H14    H     0.79980   0.63620   0.08140   0.01267  Uiso   1.00
H15    H     0.67330   0.39740   0.21360   0.01267  Uiso   1.00
H16    H     0.04180   0.54710   0.23090   0.01267  Uiso   1.00
H17    H     0.87880   0.23020   0.07060   0.01267  Uiso   1.00
H18    H     0.32260   0.38950   0.21410   0.01267  Uiso   1.00
H19    H     0.11920   0.13190   0.72770   0.01267  Uiso   1.00
H20    H     0.70020   0.08140   0.63620   0.01267  Uiso   1.00
H21    H     0.82670   0.21360   0.39740   0.01267  Uiso   1.00
H22    H     0.45820   0.23090   0.54710   0.01267  Uiso   1.00
H23    H     0.62120   0.07060   0.23020   0.01267  Uiso   1.00
H24    H     0.17740   0.21410   0.38950   0.01267  Uiso   1.00
C1     C     0.52420   0.32895   0.86483   0.01267  Uiso   1.00
C2     C     0.41600   0.29999   0.90265   0.01267  Uiso   1.00
C3     C     0.27430   0.38319   0.89481   0.01267  Uiso   1.00
C4     C     0.24290   0.49526   0.85158   0.01267  Uiso   1.00
C5     C     0.34930   0.52660   0.81512   0.01267  Uiso   1.00
C6     C     0.49160   0.44200   0.82208   0.01267  Uiso   1.00
C7     C     0.96560   0.54057   0.80587   0.01267  Uiso   1.00
C8     C     0.05490   0.71386   0.89372   0.01267  Uiso   1.00
C9     C     0.45180   0.18215   0.95777   0.01267  Uiso   1.00
C10    C     0.61570   0.47491   0.79385   0.01267  Uiso   1.00
C11    C     0.97580   0.86483   0.32895   0.01267  Uiso   1.00
C12    C     0.08400   0.90265   0.29999   0.01267  Uiso   1.00
C13    C     0.22570   0.89481   0.38319   0.01267  Uiso   1.00
C14    C     0.25710   0.85158   0.49526   0.01267  Uiso   1.00
C15    C     0.15070   0.81512   0.52660   0.01267  Uiso   1.00
C16    C     0.00840   0.82208   0.44200   0.01267  Uiso   1.00
C17    C     0.53440   0.80587   0.54057   0.01267  Uiso   1.00
C18    C     0.44510   0.89372   0.71386   0.01267  Uiso   1.00
C19    C     0.04820   0.95777   0.18215   0.01267  Uiso   1.00
C20    C     0.88430   0.79385   0.47491   0.01267  Uiso   1.00
C21    C     0.47580   0.67105   0.13517   0.01267  Uiso   1.00
C22    C     0.58400   0.70001   0.09735   0.01267  Uiso   1.00
C23    C     0.72570   0.61681   0.10519   0.01267  Uiso   1.00
C24    C     0.75710   0.50474   0.14842   0.01267  Uiso   1.00
C25    C     0.65070   0.47340   0.18488   0.01267  Uiso   1.00
C26    C     0.50840   0.55800   0.17792   0.01267  Uiso   1.00
C27    C     0.03440   0.45943   0.19413   0.01267  Uiso   1.00
C28    C     0.94510   0.28614   0.10628   0.01267  Uiso   1.00
C29    C     0.54820   0.81785   0.04223   0.01267  Uiso   1.00
C30    C     0.38430   0.52509   0.20615   0.01267  Uiso   1.00
C31    C     0.02420   0.13517   0.67105   0.01267  Uiso   1.00
C32    C     0.91600   0.09735   0.70001   0.01267  Uiso   1.00
C33    C     0.77430   0.10519   0.61681   0.01267  Uiso   1.00
C34    C     0.74290   0.14842   0.50474   0.01267  Uiso   1.00
C35    C     0.84930   0.18488   0.47340   0.01267  Uiso   1.00
C36    C     0.99160   0.17792   0.55800   0.01267  Uiso   1.00
C37    C     0.46560   0.19413   0.45943   0.01267  Uiso   1.00
C38    C     0.55490   0.10628   0.28614   0.01267  Uiso   1.00
C39    C     0.95180   0.04223   0.81785   0.01267  Uiso   1.00
C40    C     0.11570   0.20615   0.52509   0.01267  Uiso   1.00
N1     N     0.09534   0.58043   0.84761   0.01267  Uiso   1.00
N2     N     0.85244   0.64031   0.82353   0.01267  Uiso   1.00
N3     N     0.90916   0.75267   0.88081   0.01267  Uiso   1.00
N4     N     0.40466   0.84761   0.58043   0.01267  Uiso   1.00
N5     N     0.64756   0.82353   0.64031   0.01267  Uiso   1.00
N6     N     0.59084   0.88081   0.75267   0.01267  Uiso   1.00
N7     N     0.90466   0.41957   0.15239   0.01267  Uiso   1.00
N8     N     0.14756   0.35969   0.17647   0.01267  Uiso   1.00
N9     N     0.09084   0.24733   0.11919   0.01267  Uiso   1.00
N10    N     0.59534   0.15239   0.41957   0.01267  Uiso   1.00
N11    N     0.35244   0.17647   0.35969   0.01267  Uiso   1.00
N12    N     0.40916   0.11919   0.24733   0.01267  Uiso   1.00
O1     O     0.58864   0.13169   0.99743   0.01267  Uiso   1.00
O2     O     0.34171   0.14588   0.96010   0.01267  Uiso   1.00
O3     O     0.73918   0.40281   0.79859   0.01267  Uiso   1.00
O4     O     0.57863   0.59210   0.76926   0.01267  Uiso   1.00
O5     O     0.91136   0.99743   0.13169   0.01267  Uiso   1.00
O6     O     0.15829   0.96010   0.14588   0.01267  Uiso   1.00
O7     O     0.76082   0.79859   0.40281   0.01267  Uiso   1.00
O8     O     0.92137   0.76926   0.59210   0.01267  Uiso   1.00
O9     O     0.41136   0.86831   0.00257   0.01267  Uiso   1.00
O10    O     0.65829   0.85412   0.03990   0.01267  Uiso   1.00
O11    O     0.26082   0.59719   0.20141   0.01267  Uiso   1.00
O12    O     0.42137   0.40790   0.23074   0.01267  Uiso   1.00
O13    O     0.08864   0.00257   0.86831   0.01267  Uiso   1.00
O14    O     0.84171   0.03990   0.85412   0.01267  Uiso   1.00
O15    O     0.23918   0.20141   0.59719   0.01267  Uiso   1.00
O16    O     0.07863   0.23074   0.40790   0.01267  Uiso   1.00
