data_IXAJUN_clean
_audit_creation_date              2014-07-02
_audit_creation_method            'Materials Studio'
_symmetry_space_group_name_H-M    'P1'
_symmetry_Int_Tables_number       1
_symmetry_cell_setting            triclinic
loop_
_symmetry_equiv_pos_as_xyz
  x,y,z
_cell_length_a                    11.9132
_cell_length_b                    13.5460
_cell_length_c                    13.6700
_cell_angle_alpha                 90.0000
_cell_angle_beta                  113.9590
_cell_angle_gamma                 90.0000
loop_
_atom_site_label
_atom_site_type_symbol
_atom_site_fract_x
_atom_site_fract_y
_atom_site_fract_z
_atom_site_U_iso_or_equiv
_atom_site_adp_type
_atom_site_occupancy
Cu1    Cu    0.89919   0.44328   0.45961   0.01267  Uiso   1.00
Cu2    Cu    0.10081   0.94328   0.04039   0.01267  Uiso   1.00
Cu3    Cu    0.10081   0.55672   0.54039   0.01267  Uiso   1.00
Cu4    Cu    0.89919   0.05672   0.95961   0.01267  Uiso   1.00
H1     H     0.64780   0.51770   0.38600   0.01267  Uiso   1.00
H2     H     0.44740   0.47390   0.33680   0.01267  Uiso   1.00
H3     H     0.54360   0.18760   0.36410   0.01267  Uiso   1.00
H4     H     0.73990   0.24480   0.38540   0.01267  Uiso   1.00
H5     H     0.31600   0.40400   0.41880   0.01267  Uiso   1.00
H6     H     0.00710   0.25320   0.24560   0.01267  Uiso   1.00
H7     H     0.32990   0.17950   0.23220   0.01267  Uiso   1.00
H8     H     0.35220   0.01770   0.11400   0.01267  Uiso   1.00
H9     H     0.55260   0.97390   0.16320   0.01267  Uiso   1.00
H10    H     0.45640   0.68760   0.13590   0.01267  Uiso   1.00
H11    H     0.26010   0.74480   0.11460   0.01267  Uiso   1.00
H12    H     0.68400   0.90400   0.08120   0.01267  Uiso   1.00
H13    H     0.99290   0.75320   0.25440   0.01267  Uiso   1.00
H14    H     0.67010   0.67950   0.26780   0.01267  Uiso   1.00
H15    H     0.35220   0.48230   0.61400   0.01267  Uiso   1.00
H16    H     0.55260   0.52610   0.66320   0.01267  Uiso   1.00
H17    H     0.45640   0.81240   0.63590   0.01267  Uiso   1.00
H18    H     0.26010   0.75520   0.61460   0.01267  Uiso   1.00
H19    H     0.68400   0.59600   0.58120   0.01267  Uiso   1.00
H20    H     0.99290   0.74680   0.75440   0.01267  Uiso   1.00
H21    H     0.67010   0.82050   0.76780   0.01267  Uiso   1.00
H22    H     0.64780   0.98230   0.88600   0.01267  Uiso   1.00
H23    H     0.44740   0.02610   0.83680   0.01267  Uiso   1.00
H24    H     0.54360   0.31240   0.86410   0.01267  Uiso   1.00
H25    H     0.73990   0.25520   0.88540   0.01267  Uiso   1.00
H26    H     0.31600   0.09600   0.91880   0.01267  Uiso   1.00
H27    H     0.00710   0.24680   0.74560   0.01267  Uiso   1.00
H28    H     0.32990   0.32050   0.73220   0.01267  Uiso   1.00
C1     C     0.62660   0.44980   0.38190   0.01267  Uiso   1.00
C2     C     0.50820   0.42370   0.35470   0.01267  Uiso   1.00
C3     C     0.47260   0.32420   0.35230   0.01267  Uiso   1.00
C4     C     0.56060   0.25630   0.36670   0.01267  Uiso   1.00
C5     C     0.68220   0.29280   0.38650   0.01267  Uiso   1.00
C6     C     0.34160   0.29750   0.32370   0.01267  Uiso   1.00
C7     C     0.27490   0.35350   0.36880   0.01267  Uiso   1.00
C8     C     0.15060   0.33690   0.34240   0.01267  Uiso   1.00
C9     C     0.09290   0.26310   0.26780   0.01267  Uiso   1.00
C10    C     0.15670   0.20300   0.22440   0.01267  Uiso   1.00
C11    C     0.28350   0.22160   0.25730   0.01267  Uiso   1.00
C12    C     0.08390   0.39890   0.39650   0.01267  Uiso   1.00
C13    C     0.09270   0.12400   0.14360   0.01267  Uiso   1.00
C14    C     0.37340   0.94980   0.11810   0.01267  Uiso   1.00
C15    C     0.49180   0.92370   0.14530   0.01267  Uiso   1.00
C16    C     0.52740   0.82420   0.14770   0.01267  Uiso   1.00
C17    C     0.43940   0.75630   0.13330   0.01267  Uiso   1.00
C18    C     0.31780   0.79280   0.11350   0.01267  Uiso   1.00
C19    C     0.65840   0.79750   0.17630   0.01267  Uiso   1.00
C20    C     0.72510   0.85350   0.13120   0.01267  Uiso   1.00
C21    C     0.84940   0.83690   0.15760   0.01267  Uiso   1.00
C22    C     0.90710   0.76310   0.23220   0.01267  Uiso   1.00
C23    C     0.84330   0.70300   0.27560   0.01267  Uiso   1.00
C24    C     0.71650   0.72160   0.24270   0.01267  Uiso   1.00
C25    C     0.91610   0.89890   0.10350   0.01267  Uiso   1.00
C26    C     0.90730   0.62400   0.35640   0.01267  Uiso   1.00
C27    C     0.37340   0.55020   0.61810   0.01267  Uiso   1.00
C28    C     0.49180   0.57630   0.64530   0.01267  Uiso   1.00
C29    C     0.52740   0.67580   0.64770   0.01267  Uiso   1.00
C30    C     0.43940   0.74370   0.63330   0.01267  Uiso   1.00
C31    C     0.31780   0.70720   0.61350   0.01267  Uiso   1.00
C32    C     0.65840   0.70250   0.67630   0.01267  Uiso   1.00
C33    C     0.72510   0.64650   0.63120   0.01267  Uiso   1.00
C34    C     0.84940   0.66310   0.65760   0.01267  Uiso   1.00
C35    C     0.90710   0.73690   0.73220   0.01267  Uiso   1.00
C36    C     0.84330   0.79700   0.77560   0.01267  Uiso   1.00
C37    C     0.71650   0.77840   0.74270   0.01267  Uiso   1.00
C38    C     0.91610   0.60110   0.60350   0.01267  Uiso   1.00
C39    C     0.90730   0.87600   0.85640   0.01267  Uiso   1.00
C40    C     0.62660   0.05020   0.88190   0.01267  Uiso   1.00
C41    C     0.50820   0.07630   0.85470   0.01267  Uiso   1.00
C42    C     0.47260   0.17580   0.85230   0.01267  Uiso   1.00
C43    C     0.56060   0.24370   0.86670   0.01267  Uiso   1.00
C44    C     0.68220   0.20720   0.88650   0.01267  Uiso   1.00
C45    C     0.34160   0.20250   0.82370   0.01267  Uiso   1.00
C46    C     0.27490   0.14650   0.86880   0.01267  Uiso   1.00
C47    C     0.15060   0.16310   0.84240   0.01267  Uiso   1.00
C48    C     0.09290   0.23690   0.76780   0.01267  Uiso   1.00
C49    C     0.15670   0.29700   0.72440   0.01267  Uiso   1.00
C50    C     0.28350   0.27840   0.75730   0.01267  Uiso   1.00
C51    C     0.08390   0.10110   0.89650   0.01267  Uiso   1.00
C52    C     0.09270   0.37600   0.64360   0.01267  Uiso   1.00
N1     N     0.71960   0.37740   0.40430   0.01267  Uiso   1.00
N2     N     0.28040   0.87740   0.09570   0.01267  Uiso   1.00
N3     N     0.28040   0.62260   0.59570   0.01267  Uiso   1.00
N4     N     0.71960   0.12260   0.90430   0.01267  Uiso   1.00
O1     O     0.14410   0.46900   0.44350   0.01267  Uiso   1.00
O2     O     0.97850   0.37180   0.37500   0.01267  Uiso   1.00
O3     O     0.98760   0.14430   0.08450   0.01267  Uiso   1.00
O4     O     0.15550   0.05030   0.14930   0.01267  Uiso   1.00
O5     O     0.85590   0.96900   0.05650   0.01267  Uiso   1.00
O6     O     0.02150   0.87180   0.12500   0.01267  Uiso   1.00
O7     O     0.01240   0.64430   0.41550   0.01267  Uiso   1.00
O8     O     0.84450   0.55030   0.35070   0.01267  Uiso   1.00
O9     O     0.85590   0.53100   0.55650   0.01267  Uiso   1.00
O10    O     0.02150   0.62820   0.62500   0.01267  Uiso   1.00
O11    O     0.01240   0.85570   0.91550   0.01267  Uiso   1.00
O12    O     0.84450   0.94970   0.85070   0.01267  Uiso   1.00
O13    O     0.14410   0.03100   0.94350   0.01267  Uiso   1.00
O14    O     0.97850   0.12820   0.87500   0.01267  Uiso   1.00
O15    O     0.98760   0.35570   0.58450   0.01267  Uiso   1.00
O16    O     0.15550   0.44970   0.64930   0.01267  Uiso   1.00
