data_IXUREZ_clean
_audit_creation_date              2014-07-02
_audit_creation_method            'Materials Studio'
_symmetry_space_group_name_H-M    'P1'
_symmetry_Int_Tables_number       1
_symmetry_cell_setting            triclinic
loop_
_symmetry_equiv_pos_as_xyz
  x,y,z
_cell_length_a                    10.8770
_cell_length_b                    17.6190
_cell_length_c                    20.4990
_cell_angle_alpha                 110.7880
_cell_angle_beta                  93.3260
_cell_angle_gamma                 90.4080
loop_
_atom_site_label
_atom_site_type_symbol
_atom_site_fract_x
_atom_site_fract_y
_atom_site_fract_z
_atom_site_U_iso_or_equiv
_atom_site_adp_type
_atom_site_occupancy
Zn1    Zn    0.18325   0.43882   0.22738   0.01267  Uiso   1.00
Zn2    Zn    0.17825   0.55822   0.15516   0.01267  Uiso   1.00
Zn3    Zn    0.14340   0.93974   0.72437   0.01267  Uiso   1.00
Zn4    Zn    0.13234   0.05801   0.65083   0.01267  Uiso   1.00
H1     H     0.21670   0.22130   0.03780   0.01267  Uiso   1.00
H2     H     0.20490   0.11960   0.93310   0.01267  Uiso   1.00
H3     H     0.13970   0.27810   0.83820   0.01267  Uiso   1.00
H4     H     0.14820   0.38280   0.94530   0.01267  Uiso   1.00
H5     H     0.57710   0.40460   0.22840   0.01267  Uiso   1.00
H6     H     0.78620   0.40000   0.22630   0.01267  Uiso   1.00
H7     H     0.78800   0.58130   0.15560   0.01267  Uiso   1.00
H8     H     0.57890   0.58720   0.15820   0.01267  Uiso   1.00
H9     H     0.15310   0.61660   0.43260   0.01267  Uiso   1.00
H10    H     0.12610   0.71880   0.53770   0.01267  Uiso   1.00
H11    H     0.13510   0.88120   0.44160   0.01267  Uiso   1.00
H12    H     0.15410   0.77880   0.33730   0.01267  Uiso   1.00
H13    H     0.15990   0.54990   0.00660   0.01267  Uiso   1.00
H14    H     0.13280   0.63140   0.94320   0.01267  Uiso   1.00
H15    H     0.15100   0.82330   0.12280   0.01267  Uiso   1.00
H16    H     0.17730   0.73570   0.18230   0.01267  Uiso   1.00
H17    H     0.23330   0.86740   0.93240   0.01267  Uiso   1.00
H18    H     0.26080   0.92890   0.85490   0.01267  Uiso   1.00
H19    H     0.00660   0.79310   0.72560   0.01267  Uiso   1.00
H20    H     0.97250   0.72790   0.79960   0.01267  Uiso   1.00
H21    H     0.54360   0.90990   0.73320   0.01267  Uiso   1.00
H22    H     0.75660   0.91060   0.72940   0.01267  Uiso   1.00
H23    H     0.73700   0.08580   0.65140   0.01267  Uiso   1.00
H24    H     0.52440   0.08270   0.65280   0.01267  Uiso   1.00
H25    H     0.15380   0.05330   0.50550   0.01267  Uiso   1.00
H26    H     0.19050   0.13800   0.44600   0.01267  Uiso   1.00
H27    H     0.18980   0.32530   0.63000   0.01267  Uiso   1.00
H28    H     0.15270   0.23480   0.68350   0.01267  Uiso   1.00
H29    H     0.39100   0.25360   0.32790   0.01267  Uiso   1.00
H30    H     0.34510   0.31310   0.24530   0.01267  Uiso   1.00
H31    H     0.06620   0.41620   0.34560   0.01267  Uiso   1.00
H32    H     0.09730   0.35780   0.42680   0.01267  Uiso   1.00
H33    H     0.12610   0.84040   0.01120   0.01267  Uiso   1.00
H34    H     0.01990   0.71370   0.90860   0.01267  Uiso   1.00
H35    H     0.21660   0.34830   0.52060   0.01267  Uiso   1.00
H36    H     0.33560   0.22970   0.42860   0.01267  Uiso   1.00
C1     C     0.17970   0.37960   0.07280   0.01267  Uiso   1.00
C2     C     0.18020   0.31240   0.00350   0.01267  Uiso   1.00
C3     C     0.19910   0.23310   0.99760   0.01267  Uiso   1.00
C4     C     0.19280   0.17260   0.93540   0.01267  Uiso   1.00
C5     C     0.16860   0.18790   0.87470   0.01267  Uiso   1.00
C6     C     0.15360   0.26680   0.87890   0.01267  Uiso   1.00
C7     C     0.15890   0.32960   0.94290   0.01267  Uiso   1.00
C8     C     0.15640   0.12040   0.80460   0.01267  Uiso   1.00
C9     C     0.41620   0.49920   0.19580   0.01267  Uiso   1.00
C10    C     0.55430   0.49770   0.19450   0.01267  Uiso   1.00
C11    C     0.61950   0.44140   0.21400   0.01267  Uiso   1.00
C12    C     0.74430   0.43850   0.21280   0.01267  Uiso   1.00
C13    C     0.80840   0.49160   0.19180   0.01267  Uiso   1.00
C14    C     0.74540   0.54570   0.17110   0.01267  Uiso   1.00
C15    C     0.62000   0.54910   0.17250   0.01267  Uiso   1.00
C16    C     0.94540   0.48830   0.19020   0.01267  Uiso   1.00
C17    C     0.17130   0.61980   0.30580   0.01267  Uiso   1.00
C18    C     0.15710   0.68600   0.37340   0.01267  Uiso   1.00
C19    C     0.14890   0.66990   0.43440   0.01267  Uiso   1.00
C20    C     0.13480   0.73120   0.49770   0.01267  Uiso   1.00
C21    C     0.13380   0.81120   0.50140   0.01267  Uiso   1.00
C22    C     0.13920   0.82790   0.44000   0.01267  Uiso   1.00
C23    C     0.15060   0.76660   0.37780   0.01267  Uiso   1.00
C24    C     0.12770   0.87880   0.57080   0.01267  Uiso   1.00
C25    C     0.15680   0.60560   0.03030   0.01267  Uiso   1.00
C26    C     0.14050   0.65380   0.99180   0.01267  Uiso   1.00
C27    C     0.13550   0.73670   0.02580   0.01267  Uiso   1.00
C28    C     0.15130   0.76760   0.09850   0.01267  Uiso   1.00
C29    C     0.16720   0.71470   0.13380   0.01267  Uiso   1.00
C30    C     0.09400   0.79440   0.87840   0.01267  Uiso   1.00
C31    C     0.18330   0.85230   0.89120   0.01267  Uiso   1.00
C32    C     0.19990   0.88820   0.84390   0.01267  Uiso   1.00
C33    C     0.05190   0.80910   0.76840   0.01267  Uiso   1.00
C34    C     0.03020   0.77060   0.81260   0.01267  Uiso   1.00
C35    C     0.37290   0.99350   0.69250   0.01267  Uiso   1.00
C36    C     0.51140   0.99480   0.69180   0.01267  Uiso   1.00
C37    C     0.58190   0.94520   0.71560   0.01267  Uiso   1.00
C38    C     0.71030   0.94600   0.71420   0.01267  Uiso   1.00
C39    C     0.76670   0.99930   0.69020   0.01267  Uiso   1.00
C40    C     0.69840   0.04930   0.66770   0.01267  Uiso   1.00
C41    C     0.57020   0.04740   0.66850   0.01267  Uiso   1.00
C42    C     0.90240   0.99950   0.68840   0.01267  Uiso   1.00
C43    C     0.16250   0.10880   0.53060   0.01267  Uiso   1.00
C44    C     0.18570   0.15880   0.49420   0.01267  Uiso   1.00
C45    C     0.20160   0.24000   0.53080   0.01267  Uiso   1.00
C46    C     0.18490   0.26990   0.60430   0.01267  Uiso   1.00
C47    C     0.16180   0.21560   0.63560   0.01267  Uiso   1.00
C48    C     0.24980   0.30360   0.38910   0.01267  Uiso   1.00
C49    C     0.32430   0.28740   0.33240   0.01267  Uiso   1.00
C50    C     0.29590   0.32310   0.28300   0.01267  Uiso   1.00
C51    C     0.13280   0.38240   0.34160   0.01267  Uiso   1.00
C52    C     0.15160   0.34910   0.39160   0.01267  Uiso   1.00
N1     N     0.16870   0.63300   0.10060   0.01267  Uiso   1.00
N2     N     0.11220   0.78900   0.99090   0.01267  Uiso   1.00
N3     N     0.06600   0.75700   0.92270   0.01267  Uiso   1.00
N4     N     0.13620   0.86990   0.78350   0.01267  Uiso   1.00
N5     N     0.15150   0.13450   0.59990   0.01267  Uiso   1.00
N6     N     0.23090   0.29760   0.50070   0.01267  Uiso   1.00
N7     N     0.28380   0.26820   0.43750   0.01267  Uiso   1.00
N8     N     0.20060   0.37100   0.28810   0.01267  Uiso   1.00
O1     O     0.16870   0.35950   0.12585   0.01267  Uiso   1.00
O2     O     0.18800   0.45130   0.07479   0.01267  Uiso   1.00
O3     O     0.15570   0.04940   0.80500   0.01267  Uiso   1.00
O4     O     0.14690   0.13770   0.75100   0.01267  Uiso   1.00
O5     O     0.36370   0.44950   0.21550   0.01267  Uiso   1.00
O6     O     0.36350   0.55040   0.17490   0.01267  Uiso   1.00
O7     O     0.99650   0.52800   0.15930   0.01267  Uiso   1.00
O8     O     0.99900   0.44610   0.22060   0.01267  Uiso   1.00
O9     O     0.18660   0.55000   0.30601   0.01267  Uiso   1.00
O10    O     0.16810   0.63860   0.25262   0.01267  Uiso   1.00
O11    O     0.13270   0.86090   0.62500   0.01267  Uiso   1.00
O12    O     0.12300   0.95010   0.57090   0.01267  Uiso   1.00
O13    O     0.32670   0.94720   0.71900   0.01267  Uiso   1.00
O14    O     0.31610   0.03780   0.66670   0.01267  Uiso   1.00
O15    O     0.95990   0.95760   0.71560   0.01267  Uiso   1.00
O16    O     0.94890   0.04460   0.65950   0.01267  Uiso   1.00
Zn5    Zn    0.81675   0.56118   0.77262   0.01267  Uiso   1.00
Zn6    Zn    0.82175   0.44178   0.84484   0.01267  Uiso   1.00
Zn7    Zn    0.85660   0.06026   0.27563   0.01267  Uiso   1.00
Zn8    Zn    0.86766   0.94199   0.34917   0.01267  Uiso   1.00
H37    H     0.78330   0.77870   0.96220   0.01267  Uiso   1.00
H38    H     0.79510   0.88040   0.06690   0.01267  Uiso   1.00
H39    H     0.86030   0.72190   0.16180   0.01267  Uiso   1.00
H40    H     0.85180   0.61720   0.05470   0.01267  Uiso   1.00
H41    H     0.42290   0.59540   0.77160   0.01267  Uiso   1.00
H42    H     0.21380   0.60000   0.77370   0.01267  Uiso   1.00
H43    H     0.21200   0.41870   0.84440   0.01267  Uiso   1.00
H44    H     0.42110   0.41280   0.84180   0.01267  Uiso   1.00
H45    H     0.84690   0.38340   0.56740   0.01267  Uiso   1.00
H46    H     0.87390   0.28120   0.46230   0.01267  Uiso   1.00
H47    H     0.86490   0.11880   0.55840   0.01267  Uiso   1.00
H48    H     0.84590   0.22120   0.66270   0.01267  Uiso   1.00
H49    H     0.84010   0.45010   0.99340   0.01267  Uiso   1.00
H50    H     0.86720   0.36860   0.05680   0.01267  Uiso   1.00
H51    H     0.84900   0.17670   0.87720   0.01267  Uiso   1.00
H52    H     0.82270   0.26430   0.81770   0.01267  Uiso   1.00
H53    H     0.76670   0.13260   0.06760   0.01267  Uiso   1.00
H54    H     0.73920   0.07110   0.14510   0.01267  Uiso   1.00
H55    H     0.99340   0.20690   0.27440   0.01267  Uiso   1.00
H56    H     0.02750   0.27210   0.20040   0.01267  Uiso   1.00
H57    H     0.45640   0.09010   0.26680   0.01267  Uiso   1.00
H58    H     0.24340   0.08940   0.27060   0.01267  Uiso   1.00
H59    H     0.26300   0.91420   0.34860   0.01267  Uiso   1.00
H60    H     0.47560   0.91730   0.34720   0.01267  Uiso   1.00
H61    H     0.84620   0.94670   0.49450   0.01267  Uiso   1.00
H62    H     0.80950   0.86200   0.55400   0.01267  Uiso   1.00
H63    H     0.81020   0.67470   0.37000   0.01267  Uiso   1.00
H64    H     0.84730   0.76520   0.31650   0.01267  Uiso   1.00
H65    H     0.60900   0.74640   0.67210   0.01267  Uiso   1.00
H66    H     0.65490   0.68690   0.75470   0.01267  Uiso   1.00
H67    H     0.93380   0.58380   0.65440   0.01267  Uiso   1.00
H68    H     0.90270   0.64220   0.57320   0.01267  Uiso   1.00
H69    H     0.87390   0.15960   0.98880   0.01267  Uiso   1.00
H70    H     0.98010   0.28630   0.09140   0.01267  Uiso   1.00
H71    H     0.78340   0.65170   0.47940   0.01267  Uiso   1.00
H72    H     0.66440   0.77030   0.57140   0.01267  Uiso   1.00
C53    C     0.82030   0.62040   0.92720   0.01267  Uiso   1.00
C54    C     0.81980   0.68760   0.99650   0.01267  Uiso   1.00
C55    C     0.80090   0.76690   0.00240   0.01267  Uiso   1.00
C56    C     0.80720   0.82740   0.06460   0.01267  Uiso   1.00
C57    C     0.83140   0.81210   0.12530   0.01267  Uiso   1.00
C58    C     0.84640   0.73320   0.12110   0.01267  Uiso   1.00
C59    C     0.84110   0.67040   0.05710   0.01267  Uiso   1.00
C60    C     0.84360   0.87960   0.19540   0.01267  Uiso   1.00
C61    C     0.58380   0.50080   0.80420   0.01267  Uiso   1.00
C62    C     0.44570   0.50230   0.80550   0.01267  Uiso   1.00
C63    C     0.38050   0.55860   0.78600   0.01267  Uiso   1.00
C64    C     0.25570   0.56150   0.78720   0.01267  Uiso   1.00
C65    C     0.19160   0.50840   0.80820   0.01267  Uiso   1.00
C66    C     0.25460   0.45430   0.82890   0.01267  Uiso   1.00
C67    C     0.38000   0.45090   0.82750   0.01267  Uiso   1.00
C68    C     0.05460   0.51170   0.80980   0.01267  Uiso   1.00
C69    C     0.82870   0.38020   0.69420   0.01267  Uiso   1.00
C70    C     0.84290   0.31400   0.62660   0.01267  Uiso   1.00
C71    C     0.85110   0.33010   0.56560   0.01267  Uiso   1.00
C72    C     0.86520   0.26880   0.50230   0.01267  Uiso   1.00
C73    C     0.86620   0.18880   0.49860   0.01267  Uiso   1.00
C74    C     0.86080   0.17210   0.56000   0.01267  Uiso   1.00
C75    C     0.84940   0.23340   0.62220   0.01267  Uiso   1.00
C76    C     0.87230   0.12120   0.42920   0.01267  Uiso   1.00
C77    C     0.84320   0.39440   0.96970   0.01267  Uiso   1.00
C78    C     0.85950   0.34620   0.00820   0.01267  Uiso   1.00
C79    C     0.86450   0.26330   0.97420   0.01267  Uiso   1.00
C80    C     0.84870   0.23240   0.90150   0.01267  Uiso   1.00
C81    C     0.83280   0.28530   0.86620   0.01267  Uiso   1.00
C82    C     0.90600   0.20560   0.12160   0.01267  Uiso   1.00
C83    C     0.81670   0.14770   0.10880   0.01267  Uiso   1.00
C84    C     0.80010   0.11180   0.15610   0.01267  Uiso   1.00
C85    C     0.94810   0.19090   0.23160   0.01267  Uiso   1.00
C86    C     0.96980   0.22940   0.18740   0.01267  Uiso   1.00
C87    C     0.62710   0.00650   0.30750   0.01267  Uiso   1.00
C88    C     0.48860   0.00520   0.30820   0.01267  Uiso   1.00
C89    C     0.41810   0.05480   0.28440   0.01267  Uiso   1.00
C90    C     0.28970   0.05400   0.28580   0.01267  Uiso   1.00
C91    C     0.23330   0.00070   0.30980   0.01267  Uiso   1.00
C92    C     0.30160   0.95070   0.33230   0.01267  Uiso   1.00
C93    C     0.42980   0.95260   0.33150   0.01267  Uiso   1.00
C94    C     0.09760   0.00050   0.31160   0.01267  Uiso   1.00
C95    C     0.83750   0.89120   0.46940   0.01267  Uiso   1.00
C96    C     0.81430   0.84120   0.50580   0.01267  Uiso   1.00
C97    C     0.79840   0.76000   0.46920   0.01267  Uiso   1.00
C98    C     0.81510   0.73010   0.39570   0.01267  Uiso   1.00
C99    C     0.83820   0.78440   0.36440   0.01267  Uiso   1.00
C100   C     0.75020   0.69640   0.61090   0.01267  Uiso   1.00
C101   C     0.67570   0.71260   0.66760   0.01267  Uiso   1.00
C102   C     0.70410   0.67690   0.71700   0.01267  Uiso   1.00
C103   C     0.86720   0.61760   0.65840   0.01267  Uiso   1.00
C104   C     0.84840   0.65090   0.60840   0.01267  Uiso   1.00
N9     N     0.83130   0.36700   0.89940   0.01267  Uiso   1.00
N10    N     0.88780   0.21100   0.00910   0.01267  Uiso   1.00
N11    N     0.93400   0.24300   0.07730   0.01267  Uiso   1.00
N12    N     0.86380   0.13010   0.21650   0.01267  Uiso   1.00
N13    N     0.84850   0.86550   0.40010   0.01267  Uiso   1.00
N14    N     0.76910   0.70240   0.49930   0.01267  Uiso   1.00
N15    N     0.71620   0.73180   0.56250   0.01267  Uiso   1.00
N16    N     0.79940   0.62900   0.71190   0.01267  Uiso   1.00
O17    O     0.83130   0.64050   0.87415   0.01267  Uiso   1.00
O18    O     0.81200   0.54870   0.92521   0.01267  Uiso   1.00
O19    O     0.84430   0.95060   0.19500   0.01267  Uiso   1.00
O20    O     0.85310   0.86230   0.24900   0.01267  Uiso   1.00
O21    O     0.63630   0.55050   0.78450   0.01267  Uiso   1.00
O22    O     0.63650   0.44960   0.82510   0.01267  Uiso   1.00
O23    O     0.00350   0.47200   0.84070   0.01267  Uiso   1.00
O24    O     0.00100   0.55390   0.77940   0.01267  Uiso   1.00
O25    O     0.81340   0.45000   0.69399   0.01267  Uiso   1.00
O26    O     0.83190   0.36140   0.74738   0.01267  Uiso   1.00
O27    O     0.86730   0.13910   0.37500   0.01267  Uiso   1.00
O28    O     0.87700   0.04990   0.42910   0.01267  Uiso   1.00
O29    O     0.67330   0.05280   0.28100   0.01267  Uiso   1.00
O30    O     0.68390   0.96220   0.33330   0.01267  Uiso   1.00
O31    O     0.04010   0.04240   0.28440   0.01267  Uiso   1.00
O32    O     0.05110   0.95540   0.34050   0.01267  Uiso   1.00
