data_IYOHOU_clean
_audit_creation_date              2014-07-02
_audit_creation_method            'Materials Studio'
_symmetry_space_group_name_H-M    'P1'
_symmetry_Int_Tables_number       1
_symmetry_cell_setting            triclinic
loop_
_symmetry_equiv_pos_as_xyz
  x,y,z
_cell_length_a                    14.4026
_cell_length_b                    17.8510
_cell_length_c                    31.1080
_cell_angle_alpha                 99.6290
_cell_angle_beta                  90.0000
_cell_angle_gamma                 113.7920
loop_
_atom_site_label
_atom_site_type_symbol
_atom_site_fract_x
_atom_site_fract_y
_atom_site_fract_z
_atom_site_U_iso_or_equiv
_atom_site_adp_type
_atom_site_occupancy
Zn1    Zn    0.06429   0.85378   0.89814   0.01267  Uiso   1.00
Zn2    Zn    0.75022   0.24252   0.55475   0.01267  Uiso   1.00
Zn3    Zn    0.15146   0.60344   0.71013   0.01267  Uiso   1.00
Zn4    Zn    0.78949   0.85378   0.39814   0.01267  Uiso   1.00
Zn5    Zn    0.49230   0.24252   0.05475   0.01267  Uiso   1.00
Zn6    Zn    0.45198   0.60344   0.21013   0.01267  Uiso   1.00
H1     H     0.85790   0.37880   0.63080   0.01267  Uiso   1.00
H2     H     0.83440   0.47520   0.68080   0.01267  Uiso   1.00
H3     H     0.55090   0.39520   0.62660   0.01267  Uiso   1.00
H4     H     0.58170   0.30160   0.57750   0.01267  Uiso   1.00
H5     H     0.41310   0.49600   0.65970   0.01267  Uiso   1.00
H6     H     0.25270   0.49900   0.66190   0.01267  Uiso   1.00
H7     H     0.35030   0.68500   0.76010   0.01267  Uiso   1.00
H8     H     0.51430   0.68580   0.76130   0.01267  Uiso   1.00
H9     H     0.71960   0.72500   0.81510   0.01267  Uiso   1.00
H10    H     0.83900   0.80620   0.87150   0.01267  Uiso   1.00
H11    H     0.03270   0.71920   0.82270   0.01267  Uiso   1.00
H12    H     0.91930   0.63500   0.76740   0.01267  Uiso   1.00
H13    H     0.96760   0.78820   0.97620   0.01267  Uiso   1.00
H14    H     0.84710   0.79540   0.02230   0.01267  Uiso   1.00
H15    H     0.84550   0.98580   0.97040   0.01267  Uiso   1.00
H16    H     0.97000   0.97440   0.92720   0.01267  Uiso   1.00
H17    H     0.50580   0.99280   0.09890   0.01267  Uiso   1.00
H18    H     0.45090   0.09760   0.09480   0.01267  Uiso   1.00
H19    H     0.61630   0.16920   0.99910   0.01267  Uiso   1.00
H20    H     0.68150   0.06960   0.00160   0.01267  Uiso   1.00
H21    H     0.63280   0.69920   0.08060   0.01267  Uiso   1.00
H22    H     0.55220   0.61280   0.12550   0.01267  Uiso   1.00
H23    H     0.51950   0.78480   0.20490   0.01267  Uiso   1.00
H24    H     0.58080   0.87880   0.15850   0.01267  Uiso   1.00
H25    H     0.52090   0.37880   0.13080   0.01267  Uiso   1.00
H26    H     0.64080   0.47520   0.18080   0.01267  Uiso   1.00
H27    H     0.84430   0.39520   0.12660   0.01267  Uiso   1.00
H28    H     0.71990   0.30160   0.07750   0.01267  Uiso   1.00
H29    H     0.08290   0.49600   0.15970   0.01267  Uiso   1.00
H30    H     0.24630   0.49900   0.16190   0.01267  Uiso   1.00
H31    H     0.33470   0.68500   0.26010   0.01267  Uiso   1.00
H32    H     0.17150   0.68580   0.26130   0.01267  Uiso   1.00
H33    H     0.00540   0.72500   0.31510   0.01267  Uiso   1.00
H34    H     0.96720   0.80620   0.37150   0.01267  Uiso   1.00
H35    H     0.68650   0.71920   0.32270   0.01267  Uiso   1.00
H36    H     0.71570   0.63500   0.26740   0.01267  Uiso   1.00
H37    H     0.82060   0.78820   0.47620   0.01267  Uiso   1.00
H38    H     0.94830   0.79540   0.52230   0.01267  Uiso   1.00
H39    H     0.14030   0.98580   0.47040   0.01267  Uiso   1.00
H40    H     0.00440   0.97440   0.42720   0.01267  Uiso   1.00
H41    H     0.48700   0.99280   0.59890   0.01267  Uiso   1.00
H42    H     0.64670   0.09760   0.59480   0.01267  Uiso   1.00
H43    H     0.55290   0.16920   0.49910   0.01267  Uiso   1.00
H44    H     0.38810   0.06960   0.50160   0.01267  Uiso   1.00
H45    H     0.06640   0.69920   0.58060   0.01267  Uiso   1.00
H46    H     0.06060   0.61280   0.62550   0.01267  Uiso   1.00
H47    H     0.26530   0.78480   0.70490   0.01267  Uiso   1.00
H48    H     0.29800   0.87880   0.65850   0.01267  Uiso   1.00
C1     C     0.79439   0.38078   0.63036   0.01267  Uiso   1.00
C2     C     0.78166   0.44012   0.66021   0.01267  Uiso   1.00
C3     C     0.69078   0.44816   0.65989   0.01267  Uiso   1.00
C4     C     0.61396   0.39252   0.62787   0.01267  Uiso   1.00
C5     C     0.63224   0.33568   0.59920   0.01267  Uiso   1.00
C6     C     0.67467   0.51174   0.69120   0.01267  Uiso   1.00
C7     C     0.57739   0.58038   0.71307   0.01267  Uiso   1.00
C8     C     0.72824   0.61588   0.74817   0.01267  Uiso   1.00
C9     C     0.47435   0.58490   0.71043   0.01267  Uiso   1.00
C10    C     0.40156   0.53412   0.68080   0.01267  Uiso   1.00
C11    C     0.30590   0.53800   0.68130   0.01267  Uiso   1.00
C12    C     0.36420   0.64780   0.73930   0.01267  Uiso   1.00
C13    C     0.46192   0.64764   0.74128   0.01267  Uiso   1.00
C14    C     0.80363   0.66866   0.78499   0.01267  Uiso   1.00
C15    C     0.78260   0.72220   0.81630   0.01267  Uiso   1.00
C16    C     0.85560   0.77220   0.84960   0.01267  Uiso   1.00
C17    C     0.96912   0.72084   0.82117   0.01267  Uiso   1.00
C18    C     0.90138   0.66976   0.78816   0.01267  Uiso   1.00
C19    C     0.94210   0.82820   0.97510   0.01267  Uiso   1.00
C20    C     0.87085   0.83250   0.00300   0.01267  Uiso   1.00
C21    C     0.83380   0.89400   0.00190   0.01267  Uiso   1.00
C22    C     0.86984   0.94548   0.97265   0.01267  Uiso   1.00
C23    C     0.94333   0.93706   0.94616   0.01267  Uiso   1.00
C24    C     0.75210   0.89520   0.03150   0.01267  Uiso   1.00
C25    C     0.64840   0.85180   0.08430   0.01267  Uiso   1.00
C26    C     0.64619   0.95858   0.05290   0.01267  Uiso   1.00
C27    C     0.60470   0.02300   0.05060   0.01267  Uiso   1.00
C28    C     0.53109   0.02858   0.07910   0.01267  Uiso   1.00
C29    C     0.49830   0.09160   0.07580   0.01267  Uiso   1.00
C30    C     0.59581   0.13462   0.01974   0.01267  Uiso   1.00
C31    C     0.63450   0.07420   0.02120   0.01267  Uiso   1.00
C32    C     0.60730   0.79560   0.11300   0.01267  Uiso   1.00
C33    C     0.60430   0.71720   0.10480   0.01267  Uiso   1.00
C34    C     0.55820   0.66720   0.13320   0.01267  Uiso   1.00
C35    C     0.53690   0.76520   0.17790   0.01267  Uiso   1.00
C36    C     0.57630   0.82480   0.15110   0.01267  Uiso   1.00
C37    C     0.58639   0.38078   0.13036   0.01267  Uiso   1.00
C38    C     0.65846   0.44012   0.16021   0.01267  Uiso   1.00
C39    C     0.75738   0.44816   0.15989   0.01267  Uiso   1.00
C40    C     0.77856   0.39252   0.12787   0.01267  Uiso   1.00
C41    C     0.70344   0.33568   0.09920   0.01267  Uiso   1.00
C42    C     0.83707   0.51174   0.19120   0.01267  Uiso   1.00
C43    C     0.00299   0.58038   0.21307   0.01267  Uiso   1.00
C44    C     0.88764   0.61588   0.24817   0.01267  Uiso   1.00
C45    C     0.11055   0.58490   0.21043   0.01267  Uiso   1.00
C46    C     0.13256   0.53412   0.18080   0.01267  Uiso   1.00
C47    C     0.23210   0.53800   0.18130   0.01267  Uiso   1.00
C48    C     0.28360   0.64780   0.23930   0.01267  Uiso   1.00
C49    C     0.18572   0.64764   0.24128   0.01267  Uiso   1.00
C50    C     0.86503   0.66866   0.28499   0.01267  Uiso   1.00
C51    C     0.93960   0.72220   0.31630   0.01267  Uiso   1.00
C52    C     0.91660   0.77220   0.34960   0.01267  Uiso   1.00
C53    C     0.75172   0.72084   0.32117   0.01267  Uiso   1.00
C54    C     0.76838   0.66976   0.28816   0.01267  Uiso   1.00
C55    C     0.88610   0.82820   0.47510   0.01267  Uiso   1.00
C56    C     0.96165   0.83250   0.50300   0.01267  Uiso   1.00
C57    C     0.06020   0.89400   0.50190   0.01267  Uiso   1.00
C58    C     0.07564   0.94548   0.47265   0.01267  Uiso   1.00
C59    C     0.99373   0.93706   0.44616   0.01267  Uiso   1.00
C60    C     0.14310   0.89520   0.53150   0.01267  Uiso   1.00
C61    C     0.20340   0.85180   0.58430   0.01267  Uiso   1.00
C62    C     0.31239   0.95858   0.55290   0.01267  Uiso   1.00
C63    C     0.41830   0.02300   0.55060   0.01267  Uiso   1.00
C64    C     0.49749   0.02858   0.57910   0.01267  Uiso   1.00
C65    C     0.59330   0.09160   0.57580   0.01267  Uiso   1.00
C66    C     0.53881   0.13462   0.51974   0.01267  Uiso   1.00
C67    C     0.43970   0.07420   0.52120   0.01267  Uiso   1.00
C68    C     0.18830   0.79560   0.61300   0.01267  Uiso   1.00
C69    C     0.11290   0.71720   0.60480   0.01267  Uiso   1.00
C70    C     0.10900   0.66720   0.63320   0.01267  Uiso   1.00
C71    C     0.22830   0.76520   0.67790   0.01267  Uiso   1.00
C72    C     0.24850   0.82480   0.65110   0.01267  Uiso   1.00
N1     N     0.72245   0.32510   0.60042   0.01267  Uiso   1.00
N2     N     0.58735   0.52170   0.68319   0.01267  Uiso   1.00
N3     N     0.64517   0.63294   0.74516   0.01267  Uiso   1.00
N4     N     0.74601   0.55822   0.72184   0.01267  Uiso   1.00
N5     N     0.29039   0.59638   0.70884   0.01267  Uiso   1.00
N6     N     0.95071   0.77382   0.85184   0.01267  Uiso   1.00
N7     N     0.97728   0.87956   0.94624   0.01267  Uiso   1.00
N8     N     0.71906   0.84392   0.05830   0.01267  Uiso   1.00
N9     N     0.61238   0.91156   0.08225   0.01267  Uiso   1.00
N10    N     0.71712   0.95624   0.02450   0.01267  Uiso   1.00
N11    N     0.52869   0.14198   0.04844   0.01267  Uiso   1.00
N12    N     0.51990   0.68360   0.17100   0.01267  Uiso   1.00
N13    N     0.60265   0.32510   0.10042   0.01267  Uiso   1.00
N14    N     0.93435   0.52170   0.18319   0.01267  Uiso   1.00
N15    N     0.98777   0.63294   0.24516   0.01267  Uiso   1.00
N16    N     0.81221   0.55822   0.22184   0.01267  Uiso   1.00
N17    N     0.30599   0.59638   0.20884   0.01267  Uiso   1.00
N18    N     0.82311   0.77382   0.35184   0.01267  Uiso   1.00
N19    N     0.90228   0.87956   0.44624   0.01267  Uiso   1.00
N20    N     0.12486   0.84392   0.55830   0.01267  Uiso   1.00
N21    N     0.29918   0.91156   0.58225   0.01267  Uiso   1.00
N22    N     0.23912   0.95624   0.52450   0.01267  Uiso   1.00
N23    N     0.61329   0.14198   0.54844   0.01267  Uiso   1.00
N24    N     0.16370   0.68360   0.67100   0.01267  Uiso   1.00
Cl1    Cl    0.14208   0.78224   0.92117   0.01267  Uiso   1.00
Cl2    Cl    0.14001   0.96936   0.87149   0.01267  Uiso   1.00
Cl3    Cl    0.76341   0.28660   0.49243   0.01267  Uiso   1.00
Cl4    Cl    0.86389   0.21266   0.58785   0.01267  Uiso   1.00
Cl5    Cl    0.14804   0.66390   0.77679   0.01267  Uiso   1.00
Cl6    Cl    0.03844   0.48064   0.67763   0.01267  Uiso   1.00
Cl7    Cl    0.64016   0.78224   0.42117   0.01267  Uiso   1.00
Cl8    Cl    0.82935   0.96936   0.37149   0.01267  Uiso   1.00
Cl9    Cl    0.52319   0.28660   0.99243   0.01267  Uiso   1.00
Cl10   Cl    0.34877   0.21266   0.08785   0.01267  Uiso   1.00
Cl11   Cl    0.51586   0.66390   0.27679   0.01267  Uiso   1.00
Cl12   Cl    0.44220   0.48064   0.17763   0.01267  Uiso   1.00
Zn7    Zn    0.21051   0.14622   0.60186   0.01267  Uiso   1.00
Zn8    Zn    0.50770   0.75748   0.94525   0.01267  Uiso   1.00
Zn9    Zn    0.54802   0.39656   0.78987   0.01267  Uiso   1.00
Zn10   Zn    0.93571   0.14622   0.10186   0.01267  Uiso   1.00
Zn11   Zn    0.24978   0.75748   0.44525   0.01267  Uiso   1.00
Zn12   Zn    0.84854   0.39656   0.28987   0.01267  Uiso   1.00
H49    H     0.47910   0.62120   0.86920   0.01267  Uiso   1.00
H50    H     0.35920   0.52480   0.81920   0.01267  Uiso   1.00
H51    H     0.15570   0.60480   0.87340   0.01267  Uiso   1.00
H52    H     0.28010   0.69840   0.92250   0.01267  Uiso   1.00
H53    H     0.91710   0.50400   0.84030   0.01267  Uiso   1.00
H54    H     0.75370   0.50100   0.83810   0.01267  Uiso   1.00
H55    H     0.66530   0.31500   0.73990   0.01267  Uiso   1.00
H56    H     0.82850   0.31420   0.73870   0.01267  Uiso   1.00
H57    H     0.99460   0.27500   0.68490   0.01267  Uiso   1.00
H58    H     0.03280   0.19380   0.62850   0.01267  Uiso   1.00
H59    H     0.31350   0.28080   0.67730   0.01267  Uiso   1.00
H60    H     0.28430   0.36500   0.73260   0.01267  Uiso   1.00
H61    H     0.17940   0.21180   0.52380   0.01267  Uiso   1.00
H62    H     0.05170   0.20460   0.47770   0.01267  Uiso   1.00
H63    H     0.85970   0.01420   0.52960   0.01267  Uiso   1.00
H64    H     0.99560   0.02560   0.57280   0.01267  Uiso   1.00
H65    H     0.51300   0.00720   0.40110   0.01267  Uiso   1.00
H66    H     0.35330   0.90240   0.40520   0.01267  Uiso   1.00
H67    H     0.44710   0.83080   0.50090   0.01267  Uiso   1.00
H68    H     0.61190   0.93040   0.49840   0.01267  Uiso   1.00
H69    H     0.93360   0.30080   0.41940   0.01267  Uiso   1.00
H70    H     0.93940   0.38720   0.37450   0.01267  Uiso   1.00
H71    H     0.73470   0.21520   0.29510   0.01267  Uiso   1.00
H72    H     0.70200   0.12120   0.34150   0.01267  Uiso   1.00
H73    H     0.14210   0.62120   0.36920   0.01267  Uiso   1.00
H74    H     0.16560   0.52480   0.31920   0.01267  Uiso   1.00
H75    H     0.44910   0.60480   0.37340   0.01267  Uiso   1.00
H76    H     0.41830   0.69840   0.42250   0.01267  Uiso   1.00
H77    H     0.58690   0.50400   0.34030   0.01267  Uiso   1.00
H78    H     0.74730   0.50100   0.33810   0.01267  Uiso   1.00
H79    H     0.64970   0.31500   0.23990   0.01267  Uiso   1.00
H80    H     0.48570   0.31420   0.23870   0.01267  Uiso   1.00
H81    H     0.28040   0.27500   0.18490   0.01267  Uiso   1.00
H82    H     0.16100   0.19380   0.12850   0.01267  Uiso   1.00
H83    H     0.96730   0.28080   0.17730   0.01267  Uiso   1.00
H84    H     0.08070   0.36500   0.23260   0.01267  Uiso   1.00
H85    H     0.03240   0.21180   0.02380   0.01267  Uiso   1.00
H86    H     0.15290   0.20460   0.97770   0.01267  Uiso   1.00
H87    H     0.15450   0.01420   0.02960   0.01267  Uiso   1.00
H88    H     0.03000   0.02560   0.07280   0.01267  Uiso   1.00
H89    H     0.49420   0.00720   0.90110   0.01267  Uiso   1.00
H90    H     0.54910   0.90240   0.90520   0.01267  Uiso   1.00
H91    H     0.38370   0.83080   0.00090   0.01267  Uiso   1.00
H92    H     0.31850   0.93040   0.99840   0.01267  Uiso   1.00
H93    H     0.36720   0.30080   0.91940   0.01267  Uiso   1.00
H94    H     0.44780   0.38720   0.87450   0.01267  Uiso   1.00
H95    H     0.48050   0.21520   0.79510   0.01267  Uiso   1.00
H96    H     0.41920   0.12120   0.84150   0.01267  Uiso   1.00
C73    C     0.41361   0.61922   0.86964   0.01267  Uiso   1.00
C74    C     0.34154   0.55988   0.83979   0.01267  Uiso   1.00
C75    C     0.24262   0.55184   0.84011   0.01267  Uiso   1.00
C76    C     0.22144   0.60748   0.87213   0.01267  Uiso   1.00
C77    C     0.29656   0.66432   0.90080   0.01267  Uiso   1.00
C78    C     0.16293   0.48826   0.80880   0.01267  Uiso   1.00
C79    C     0.99701   0.41962   0.78693   0.01267  Uiso   1.00
C80    C     0.11236   0.38412   0.75183   0.01267  Uiso   1.00
C81    C     0.88945   0.41510   0.78957   0.01267  Uiso   1.00
C82    C     0.86744   0.46588   0.81920   0.01267  Uiso   1.00
C83    C     0.76790   0.46200   0.81870   0.01267  Uiso   1.00
C84    C     0.71640   0.35220   0.76070   0.01267  Uiso   1.00
C85    C     0.81428   0.35236   0.75872   0.01267  Uiso   1.00
C86    C     0.13497   0.33134   0.71501   0.01267  Uiso   1.00
C87    C     0.06040   0.27780   0.68370   0.01267  Uiso   1.00
C88    C     0.08340   0.22780   0.65040   0.01267  Uiso   1.00
C89    C     0.24828   0.27916   0.67883   0.01267  Uiso   1.00
C90    C     0.23162   0.33024   0.71184   0.01267  Uiso   1.00
C91    C     0.11390   0.17180   0.52490   0.01267  Uiso   1.00
C92    C     0.03835   0.16750   0.49700   0.01267  Uiso   1.00
C93    C     0.93980   0.10600   0.49810   0.01267  Uiso   1.00
C94    C     0.92436   0.05452   0.52735   0.01267  Uiso   1.00
C95    C     0.00627   0.06294   0.55384   0.01267  Uiso   1.00
C96    C     0.85690   0.10480   0.46850   0.01267  Uiso   1.00
C97    C     0.79660   0.14820   0.41570   0.01267  Uiso   1.00
C98    C     0.68761   0.04142   0.44710   0.01267  Uiso   1.00
C99    C     0.58170   0.97700   0.44940   0.01267  Uiso   1.00
C100   C     0.50251   0.97142   0.42090   0.01267  Uiso   1.00
C101   C     0.40670   0.90840   0.42420   0.01267  Uiso   1.00
C102   C     0.46119   0.86538   0.48026   0.01267  Uiso   1.00
C103   C     0.56030   0.92580   0.47880   0.01267  Uiso   1.00
C104   C     0.81170   0.20440   0.38700   0.01267  Uiso   1.00
C105   C     0.88710   0.28280   0.39520   0.01267  Uiso   1.00
C106   C     0.89100   0.33280   0.36680   0.01267  Uiso   1.00
C107   C     0.77170   0.23480   0.32210   0.01267  Uiso   1.00
C108   C     0.75150   0.17520   0.34890   0.01267  Uiso   1.00
C109   C     0.20561   0.61922   0.36964   0.01267  Uiso   1.00
C110   C     0.21834   0.55988   0.33979   0.01267  Uiso   1.00
C111   C     0.30922   0.55184   0.34011   0.01267  Uiso   1.00
C112   C     0.38604   0.60748   0.37213   0.01267  Uiso   1.00
C113   C     0.36776   0.66432   0.40080   0.01267  Uiso   1.00
C114   C     0.32533   0.48826   0.30880   0.01267  Uiso   1.00
C115   C     0.42261   0.41962   0.28693   0.01267  Uiso   1.00
C116   C     0.27176   0.38412   0.25183   0.01267  Uiso   1.00
C117   C     0.52565   0.41510   0.28957   0.01267  Uiso   1.00
C118   C     0.59844   0.46588   0.31920   0.01267  Uiso   1.00
C119   C     0.69410   0.46200   0.31870   0.01267  Uiso   1.00
C120   C     0.63580   0.35220   0.26070   0.01267  Uiso   1.00
C121   C     0.53808   0.35236   0.25872   0.01267  Uiso   1.00
C122   C     0.19637   0.33134   0.21501   0.01267  Uiso   1.00
C123   C     0.21740   0.27780   0.18370   0.01267  Uiso   1.00
C124   C     0.14440   0.22780   0.15040   0.01267  Uiso   1.00
C125   C     0.03088   0.27916   0.17883   0.01267  Uiso   1.00
C126   C     0.09862   0.33024   0.21184   0.01267  Uiso   1.00
C127   C     0.05790   0.17180   0.02490   0.01267  Uiso   1.00
C128   C     0.12915   0.16750   0.99700   0.01267  Uiso   1.00
C129   C     0.16620   0.10600   0.99810   0.01267  Uiso   1.00
C130   C     0.13016   0.05452   0.02735   0.01267  Uiso   1.00
C131   C     0.05667   0.06294   0.05384   0.01267  Uiso   1.00
C132   C     0.24790   0.10480   0.96850   0.01267  Uiso   1.00
C133   C     0.35160   0.14820   0.91570   0.01267  Uiso   1.00
C134   C     0.35381   0.04142   0.94710   0.01267  Uiso   1.00
C135   C     0.39530   0.97700   0.94940   0.01267  Uiso   1.00
C136   C     0.46891   0.97142   0.92090   0.01267  Uiso   1.00
C137   C     0.50170   0.90840   0.92420   0.01267  Uiso   1.00
C138   C     0.40419   0.86538   0.98026   0.01267  Uiso   1.00
C139   C     0.36550   0.92580   0.97880   0.01267  Uiso   1.00
C140   C     0.39270   0.20440   0.88700   0.01267  Uiso   1.00
C141   C     0.39570   0.28280   0.89520   0.01267  Uiso   1.00
C142   C     0.44180   0.33280   0.86680   0.01267  Uiso   1.00
C143   C     0.46310   0.23480   0.82210   0.01267  Uiso   1.00
C144   C     0.42370   0.17520   0.84890   0.01267  Uiso   1.00
N25    N     0.39735   0.67490   0.89958   0.01267  Uiso   1.00
N26    N     0.06565   0.47830   0.81681   0.01267  Uiso   1.00
N27    N     0.01223   0.36706   0.75484   0.01267  Uiso   1.00
N28    N     0.18779   0.44178   0.77816   0.01267  Uiso   1.00
N29    N     0.69401   0.40362   0.79116   0.01267  Uiso   1.00
N30    N     0.17689   0.22618   0.64816   0.01267  Uiso   1.00
N31    N     0.09772   0.12044   0.55376   0.01267  Uiso   1.00
N32    N     0.87514   0.15608   0.44170   0.01267  Uiso   1.00
N33    N     0.70082   0.08844   0.41775   0.01267  Uiso   1.00
N34    N     0.76088   0.04376   0.47550   0.01267  Uiso   1.00
N35    N     0.38671   0.85802   0.45156   0.01267  Uiso   1.00
N36    N     0.83630   0.31640   0.32900   0.01267  Uiso   1.00
N37    N     0.27755   0.67490   0.39958   0.01267  Uiso   1.00
N38    N     0.41265   0.47830   0.31681   0.01267  Uiso   1.00
N39    N     0.35483   0.36706   0.25484   0.01267  Uiso   1.00
N40    N     0.25399   0.44178   0.27816   0.01267  Uiso   1.00
N41    N     0.70961   0.40362   0.29116   0.01267  Uiso   1.00
N42    N     0.04929   0.22618   0.14816   0.01267  Uiso   1.00
N43    N     0.02272   0.12044   0.05376   0.01267  Uiso   1.00
N44    N     0.28094   0.15608   0.94170   0.01267  Uiso   1.00
N45    N     0.38762   0.08844   0.91775   0.01267  Uiso   1.00
N46    N     0.28288   0.04376   0.97550   0.01267  Uiso   1.00
N47    N     0.47131   0.85802   0.95156   0.01267  Uiso   1.00
N48    N     0.48010   0.31640   0.82900   0.01267  Uiso   1.00
Cl13   Cl    0.35984   0.21776   0.57883   0.01267  Uiso   1.00
Cl14   Cl    0.17065   0.03064   0.62851   0.01267  Uiso   1.00
Cl15   Cl    0.47681   0.71340   0.00757   0.01267  Uiso   1.00
Cl16   Cl    0.65123   0.78734   0.91215   0.01267  Uiso   1.00
Cl17   Cl    0.48414   0.33610   0.72321   0.01267  Uiso   1.00
Cl18   Cl    0.55780   0.51936   0.82237   0.01267  Uiso   1.00
Cl19   Cl    0.85792   0.21776   0.07883   0.01267  Uiso   1.00
Cl20   Cl    0.85999   0.03064   0.12851   0.01267  Uiso   1.00
Cl21   Cl    0.23659   0.71340   0.50757   0.01267  Uiso   1.00
Cl22   Cl    0.13611   0.78734   0.41215   0.01267  Uiso   1.00
Cl23   Cl    0.85196   0.33610   0.22321   0.01267  Uiso   1.00
Cl24   Cl    0.96156   0.51936   0.32237   0.01267  Uiso   1.00
