data_IYUREA_clean
_audit_creation_date              2014-07-02
_audit_creation_method            'Materials Studio'
_symmetry_space_group_name_H-M    'P1'
_symmetry_Int_Tables_number       1
_symmetry_cell_setting            triclinic
loop_
_symmetry_equiv_pos_as_xyz
  x,y,z
_cell_length_a                    9.2189
_cell_length_b                    9.2189
_cell_length_c                    10.5170
_cell_angle_alpha                 100.0030
_cell_angle_beta                  100.0030
_cell_angle_gamma                 91.6964
loop_
_atom_site_label
_atom_site_type_symbol
_atom_site_fract_x
_atom_site_fract_y
_atom_site_fract_z
_atom_site_U_iso_or_equiv
_atom_site_adp_type
_atom_site_occupancy
Cu1    Cu    0.00000   0.00000   0.00000   0.01267  Uiso   1.00
Cu2    Cu    0.00000   0.00000   0.50000   0.01267  Uiso   1.00
Ni1    Ni    0.14693   0.85307   0.25000   0.01267  Uiso   1.00
Ni2    Ni    0.85307   0.14693   0.75000   0.01267  Uiso   1.00
H1     H     0.58890   0.05050   0.11000   0.01267  Uiso   1.00
H2     H     0.35030   0.02430   0.13880   0.01267  Uiso   1.00
H3     H     0.45040   0.72760   0.35540   0.01267  Uiso   1.00
H4     H     0.69190   0.74390   0.33150   0.01267  Uiso   1.00
H5     H     0.94950   0.41110   0.39000   0.01267  Uiso   1.00
H6     H     0.97570   0.64970   0.36120   0.01267  Uiso   1.00
H7     H     0.27240   0.54960   0.14460   0.01267  Uiso   1.00
H8     H     0.25610   0.30810   0.16850   0.01267  Uiso   1.00
H9     H     0.41110   0.94950   0.89000   0.01267  Uiso   1.00
H10    H     0.64970   0.97570   0.86120   0.01267  Uiso   1.00
H11    H     0.54960   0.27240   0.64460   0.01267  Uiso   1.00
H12    H     0.30810   0.25610   0.66850   0.01267  Uiso   1.00
H13    H     0.05050   0.58890   0.61000   0.01267  Uiso   1.00
H14    H     0.02430   0.35030   0.63880   0.01267  Uiso   1.00
H15    H     0.72760   0.45040   0.85540   0.01267  Uiso   1.00
H16    H     0.74390   0.69190   0.83150   0.01267  Uiso   1.00
C1     C     0.56270   0.98150   0.15820   0.01267  Uiso   1.00
C2     C     0.41950   0.96550   0.17650   0.01267  Uiso   1.00
C3     C     0.47800   0.79160   0.30320   0.01267  Uiso   1.00
C4     C     0.66730   0.89490   0.21180   0.01267  Uiso   1.00
C5     C     0.82220   0.90440   0.18380   0.01267  Uiso   1.00
C6     C     0.62380   0.80040   0.28940   0.01267  Uiso   1.00
C7     C     0.01850   0.43730   0.34180   0.01267  Uiso   1.00
C8     C     0.03450   0.58050   0.32350   0.01267  Uiso   1.00
C9     C     0.20840   0.52200   0.19680   0.01267  Uiso   1.00
C10    C     0.10510   0.33270   0.28820   0.01267  Uiso   1.00
C11    C     0.09560   0.17780   0.31620   0.01267  Uiso   1.00
C12    C     0.19960   0.37620   0.21060   0.01267  Uiso   1.00
C13    C     0.43730   0.01850   0.84180   0.01267  Uiso   1.00
C14    C     0.58050   0.03450   0.82350   0.01267  Uiso   1.00
C15    C     0.52200   0.20840   0.69680   0.01267  Uiso   1.00
C16    C     0.33270   0.10510   0.78820   0.01267  Uiso   1.00
C17    C     0.17780   0.09560   0.81620   0.01267  Uiso   1.00
C18    C     0.37620   0.19960   0.71060   0.01267  Uiso   1.00
C19    C     0.98150   0.56270   0.65820   0.01267  Uiso   1.00
C20    C     0.96550   0.41950   0.67650   0.01267  Uiso   1.00
C21    C     0.79160   0.47800   0.80320   0.01267  Uiso   1.00
C22    C     0.89490   0.66730   0.71180   0.01267  Uiso   1.00
C23    C     0.90440   0.82220   0.68380   0.01267  Uiso   1.00
C24    C     0.80040   0.62380   0.78940   0.01267  Uiso   1.00
N1     N     0.37410   0.86930   0.24610   0.01267  Uiso   1.00
N2     N     0.09190   0.82010   0.04470   0.01267  Uiso   1.00
N3     N     0.17140   0.75400   0.97820   0.01267  Uiso   1.00
N4     N     0.24750   0.69090   0.91740   0.01267  Uiso   1.00
N5     N     0.13070   0.62590   0.25390   0.01267  Uiso   1.00
N6     N     0.17990   0.90810   0.45530   0.01267  Uiso   1.00
N7     N     0.24600   0.82860   0.52180   0.01267  Uiso   1.00
N8     N     0.30910   0.75250   0.58260   0.01267  Uiso   1.00
N9     N     0.62590   0.13070   0.75390   0.01267  Uiso   1.00
N10    N     0.90810   0.17990   0.95530   0.01267  Uiso   1.00
N11    N     0.82860   0.24600   0.02180   0.01267  Uiso   1.00
N12    N     0.75250   0.30910   0.08260   0.01267  Uiso   1.00
N13    N     0.86930   0.37410   0.74610   0.01267  Uiso   1.00
N14    N     0.82010   0.09190   0.54470   0.01267  Uiso   1.00
N15    N     0.75400   0.17140   0.47820   0.01267  Uiso   1.00
N16    N     0.69090   0.24750   0.41740   0.01267  Uiso   1.00
O1     O     0.83288   0.95792   0.08330   0.01267  Uiso   1.00
O2     O     0.92215   0.86015   0.26110   0.01267  Uiso   1.00
O3     O     0.04208   0.16712   0.41670   0.01267  Uiso   1.00
O4     O     0.13985   0.07785   0.23890   0.01267  Uiso   1.00
O5     O     0.16712   0.04208   0.91670   0.01267  Uiso   1.00
O6     O     0.07785   0.13985   0.73890   0.01267  Uiso   1.00
O7     O     0.95792   0.83288   0.58330   0.01267  Uiso   1.00
O8     O     0.86015   0.92215   0.76110   0.01267  Uiso   1.00
