data_IYUSAX_clean
_audit_creation_date              2014-07-02
_audit_creation_method            'Materials Studio'
_symmetry_space_group_name_H-M    'P1'
_symmetry_Int_Tables_number       1
_symmetry_cell_setting            triclinic
loop_
_symmetry_equiv_pos_as_xyz
  x,y,z
_cell_length_a                    9.3101
_cell_length_b                    9.3101
_cell_length_c                    10.4460
_cell_angle_alpha                 99.9678
_cell_angle_beta                  99.9678
_cell_angle_gamma                 91.7059
loop_
_atom_site_label
_atom_site_type_symbol
_atom_site_fract_x
_atom_site_fract_y
_atom_site_fract_z
_atom_site_U_iso_or_equiv
_atom_site_adp_type
_atom_site_occupancy
Co1    Co    0.14796   0.85204   0.25000   0.01267  Uiso   1.00
Co2    Co    0.85204   0.14796   0.75000   0.01267  Uiso   1.00
Cu1    Cu    0.00000   0.00000   0.50000   0.01267  Uiso   1.00
Cu2    Cu    0.00000   0.00000   0.00000   0.01267  Uiso   1.00
H1     H     0.27680   0.54460   0.14680   0.01267  Uiso   1.00
H2     H     0.25550   0.30550   0.16830   0.01267  Uiso   1.00
H3     H     0.95220   0.41040   0.38970   0.01267  Uiso   1.00
H4     H     0.98010   0.64590   0.36060   0.01267  Uiso   1.00
H5     H     0.45540   0.72320   0.35320   0.01267  Uiso   1.00
H6     H     0.69450   0.74450   0.33170   0.01267  Uiso   1.00
H7     H     0.58960   0.04780   0.11030   0.01267  Uiso   1.00
H8     H     0.35410   0.01990   0.13940   0.01267  Uiso   1.00
H9     H     0.72320   0.45540   0.85320   0.01267  Uiso   1.00
H10    H     0.74450   0.69450   0.83170   0.01267  Uiso   1.00
H11    H     0.04780   0.58960   0.61030   0.01267  Uiso   1.00
H12    H     0.01990   0.35410   0.63940   0.01267  Uiso   1.00
H13    H     0.54460   0.27680   0.64680   0.01267  Uiso   1.00
H14    H     0.30550   0.25550   0.66830   0.01267  Uiso   1.00
H15    H     0.41040   0.95220   0.88970   0.01267  Uiso   1.00
H16    H     0.64590   0.98010   0.86060   0.01267  Uiso   1.00
C1     C     0.10740   0.33200   0.28890   0.01267  Uiso   1.00
C2     C     0.21170   0.51750   0.19780   0.01267  Uiso   1.00
C3     C     0.20070   0.37370   0.21110   0.01267  Uiso   1.00
C4     C     0.09680   0.17760   0.31690   0.01267  Uiso   1.00
C5     C     0.02130   0.43590   0.34170   0.01267  Uiso   1.00
C6     C     0.03830   0.57710   0.32310   0.01267  Uiso   1.00
C7     C     0.66800   0.89260   0.21110   0.01267  Uiso   1.00
C8     C     0.48250   0.78830   0.30220   0.01267  Uiso   1.00
C9     C     0.62630   0.79930   0.28890   0.01267  Uiso   1.00
C10    C     0.82240   0.90320   0.18310   0.01267  Uiso   1.00
C11    C     0.56410   0.97870   0.15830   0.01267  Uiso   1.00
C12    C     0.42290   0.96170   0.17690   0.01267  Uiso   1.00
C13    C     0.89260   0.66800   0.71110   0.01267  Uiso   1.00
C14    C     0.78830   0.48250   0.80220   0.01267  Uiso   1.00
C15    C     0.79930   0.62630   0.78890   0.01267  Uiso   1.00
C16    C     0.90320   0.82240   0.68310   0.01267  Uiso   1.00
C17    C     0.97870   0.56410   0.65830   0.01267  Uiso   1.00
C18    C     0.96170   0.42290   0.67690   0.01267  Uiso   1.00
C19    C     0.33200   0.10740   0.78890   0.01267  Uiso   1.00
C20    C     0.51750   0.21170   0.69780   0.01267  Uiso   1.00
C21    C     0.37370   0.20070   0.71110   0.01267  Uiso   1.00
C22    C     0.17760   0.09680   0.81690   0.01267  Uiso   1.00
C23    C     0.43590   0.02130   0.84170   0.01267  Uiso   1.00
C24    C     0.57710   0.03830   0.82310   0.01267  Uiso   1.00
N1     N     0.13390   0.62110   0.25420   0.01267  Uiso   1.00
N2     N     0.09300   0.82120   0.04300   0.01267  Uiso   1.00
N3     N     0.17170   0.75470   0.97490   0.01267  Uiso   1.00
N4     N     0.24670   0.69230   0.91290   0.01267  Uiso   1.00
N5     N     0.37890   0.86610   0.24580   0.01267  Uiso   1.00
N6     N     0.17880   0.90700   0.45700   0.01267  Uiso   1.00
N7     N     0.24530   0.82830   0.52510   0.01267  Uiso   1.00
N8     N     0.30770   0.75330   0.58710   0.01267  Uiso   1.00
N9     N     0.86610   0.37890   0.74580   0.01267  Uiso   1.00
N10    N     0.90700   0.17880   0.95700   0.01267  Uiso   1.00
N11    N     0.82830   0.24530   0.02510   0.01267  Uiso   1.00
N12    N     0.75330   0.30770   0.08710   0.01267  Uiso   1.00
N13    N     0.62110   0.13390   0.75420   0.01267  Uiso   1.00
N14    N     0.82120   0.09300   0.54300   0.01267  Uiso   1.00
N15    N     0.75470   0.17170   0.47490   0.01267  Uiso   1.00
N16    N     0.69230   0.24670   0.41290   0.01267  Uiso   1.00
O1     O     0.13890   0.07770   0.23840   0.01267  Uiso   1.00
O2     O     0.04360   0.16640   0.41790   0.01267  Uiso   1.00
O3     O     0.92230   0.86110   0.26160   0.01267  Uiso   1.00
O4     O     0.83360   0.95640   0.08210   0.01267  Uiso   1.00
O5     O     0.86110   0.92230   0.76160   0.01267  Uiso   1.00
O6     O     0.95640   0.83360   0.58210   0.01267  Uiso   1.00
O7     O     0.07770   0.13890   0.73840   0.01267  Uiso   1.00
O8     O     0.16640   0.04360   0.91790   0.01267  Uiso   1.00
