data_JEJWIF_clean
_audit_creation_date              2014-07-02
_audit_creation_method            'Materials Studio'
_symmetry_space_group_name_H-M    'P1'
_symmetry_Int_Tables_number       1
_symmetry_cell_setting            triclinic
loop_
_symmetry_equiv_pos_as_xyz
  x,y,z
_cell_length_a                    13.7030
_cell_length_b                    14.1200
_cell_length_c                    15.8100
_cell_angle_alpha                 105.0690
_cell_angle_beta                  103.3550
_cell_angle_gamma                 109.0520
loop_
_atom_site_label
_atom_site_type_symbol
_atom_site_fract_x
_atom_site_fract_y
_atom_site_fract_z
_atom_site_U_iso_or_equiv
_atom_site_adp_type
_atom_site_occupancy
Co1    Co    0.97112   0.89549   0.16048   0.01267  Uiso   1.00
Co2    Co    0.02888   0.10451   0.83952   0.01267  Uiso   1.00
Co3    Co    0.00000   0.00000   0.00000   0.01267  Uiso   1.00
H1     H     0.92270   0.63180   0.27230   0.01267  Uiso   1.00
H2     H     0.95790   0.51780   0.34090   0.01267  Uiso   1.00
H3     H     0.27790   0.73170   0.47110   0.01267  Uiso   1.00
H4     H     0.23460   0.84450   0.39540   0.01267  Uiso   1.00
H5     H     0.66660   0.85210   0.85850   0.01267  Uiso   1.00
H6     H     0.47760   0.78830   0.78370   0.01267  Uiso   1.00
H7     H     0.43140   0.74570   0.01380   0.01267  Uiso   1.00
H8     H     0.61760   0.80900   0.08490   0.01267  Uiso   1.00
H9     H     0.35340   0.56840   0.72930   0.01267  Uiso   1.00
H10    H     0.28430   0.49890   0.56820   0.01267  Uiso   1.00
H11    H     0.10530   0.67310   0.56930   0.01267  Uiso   1.00
H12    H     0.17820   0.74510   0.73230   0.01267  Uiso   1.00
H13    H     0.14120   0.58330   0.85190   0.01267  Uiso   1.00
H14    H     0.02730   0.62210   0.92940   0.01267  Uiso   1.00
H15    H     0.21930   0.93620   0.02090   0.01267  Uiso   1.00
H16    H     0.34020   0.89820   0.95250   0.01267  Uiso   1.00
H17    H     0.14570   0.47800   0.28630   0.01267  Uiso   1.00
H18    H     0.09580   0.30440   0.18550   0.01267  Uiso   1.00
H19    H     0.05580   0.19370   0.38700   0.01267  Uiso   1.00
H20    H     0.09790   0.36270   0.48720   0.01267  Uiso   1.00
H21    H     0.07730   0.36820   0.72770   0.01267  Uiso   1.00
H22    H     0.04210   0.48220   0.65910   0.01267  Uiso   1.00
H23    H     0.72210   0.26830   0.52890   0.01267  Uiso   1.00
H24    H     0.76540   0.15550   0.60460   0.01267  Uiso   1.00
H25    H     0.33340   0.14790   0.14150   0.01267  Uiso   1.00
H26    H     0.52240   0.21170   0.21630   0.01267  Uiso   1.00
H27    H     0.56860   0.25430   0.98620   0.01267  Uiso   1.00
H28    H     0.38240   0.19100   0.91510   0.01267  Uiso   1.00
H29    H     0.64660   0.43160   0.27070   0.01267  Uiso   1.00
H30    H     0.71570   0.50110   0.43180   0.01267  Uiso   1.00
H31    H     0.89470   0.32690   0.43070   0.01267  Uiso   1.00
H32    H     0.82180   0.25490   0.26770   0.01267  Uiso   1.00
H33    H     0.85880   0.41670   0.14810   0.01267  Uiso   1.00
H34    H     0.97270   0.37790   0.07060   0.01267  Uiso   1.00
H35    H     0.78070   0.06380   0.97910   0.01267  Uiso   1.00
H36    H     0.65980   0.10180   0.04750   0.01267  Uiso   1.00
H37    H     0.85430   0.52200   0.71370   0.01267  Uiso   1.00
H38    H     0.90420   0.69560   0.81450   0.01267  Uiso   1.00
H39    H     0.94420   0.80630   0.61300   0.01267  Uiso   1.00
H40    H     0.90210   0.63730   0.51280   0.01267  Uiso   1.00
C1     C     0.05190   0.81760   0.27410   0.01267  Uiso   1.00
C2     C     0.07330   0.74660   0.32470   0.01267  Uiso   1.00
C3     C     0.99480   0.65170   0.31150   0.01267  Uiso   1.00
C4     C     0.01510   0.58360   0.35220   0.01267  Uiso   1.00
C5     C     0.12410   0.61210   0.41270   0.01267  Uiso   1.00
C6     C     0.20620   0.71010   0.43030   0.01267  Uiso   1.00
C7     C     0.17950   0.77760   0.38480   0.01267  Uiso   1.00
C8     C     0.78080   0.87310   0.02150   0.01267  Uiso   1.00
C9     C     0.66060   0.83540   0.97870   0.01267  Uiso   1.00
C10    C     0.61850   0.82960   0.89010   0.01267  Uiso   1.00
C11    C     0.50540   0.79100   0.84490   0.01267  Uiso   1.00
C12    C     0.43500   0.75710   0.89090   0.01267  Uiso   1.00
C13    C     0.47840   0.76600   0.98070   0.01267  Uiso   1.00
C14    C     0.58960   0.80420   0.02310   0.01267  Uiso   1.00
C15    C     0.30420   0.59110   0.69710   0.01267  Uiso   1.00
C16    C     0.26240   0.54920   0.60110   0.01267  Uiso   1.00
C17    C     0.18860   0.58010   0.55240   0.01267  Uiso   1.00
C18    C     0.15660   0.65230   0.60120   0.01267  Uiso   1.00
C19    C     0.20050   0.69530   0.69920   0.01267  Uiso   1.00
C20    C     0.27410   0.66640   0.74670   0.01267  Uiso   1.00
C21    C     0.25090   0.73670   0.89480   0.01267  Uiso   1.00
C22    C     0.15810   0.65490   0.88760   0.01267  Uiso   1.00
C23    C     0.09010   0.67830   0.93290   0.01267  Uiso   1.00
C24    C     0.11250   0.78380   0.98380   0.01267  Uiso   1.00
C25    C     0.20450   0.86430   0.98830   0.01267  Uiso   1.00
C26    C     0.27550   0.84220   0.94640   0.01267  Uiso   1.00
C27    C     0.12580   0.43840   0.39700   0.01267  Uiso   1.00
C28    C     0.12600   0.42020   0.30710   0.01267  Uiso   1.00
C29    C     0.09680   0.31610   0.24710   0.01267  Uiso   1.00
C30    C     0.06980   0.23120   0.27550   0.01267  Uiso   1.00
C31    C     0.07250   0.25140   0.36580   0.01267  Uiso   1.00
C32    C     0.09850   0.35210   0.42610   0.01267  Uiso   1.00
C33    C     0.03580   0.11910   0.20830   0.01267  Uiso   1.00
C34    C     0.03710   0.80660   0.03200   0.01267  Uiso   1.00
C35    C     0.94810   0.18240   0.72590   0.01267  Uiso   1.00
C36    C     0.92670   0.25340   0.67530   0.01267  Uiso   1.00
C37    C     0.00520   0.34830   0.68850   0.01267  Uiso   1.00
C38    C     0.98490   0.41640   0.64780   0.01267  Uiso   1.00
C39    C     0.87590   0.38790   0.58730   0.01267  Uiso   1.00
C40    C     0.79380   0.28990   0.56970   0.01267  Uiso   1.00
C41    C     0.82050   0.22240   0.61520   0.01267  Uiso   1.00
C42    C     0.21920   0.12690   0.97850   0.01267  Uiso   1.00
C43    C     0.33940   0.16460   0.02130   0.01267  Uiso   1.00
C44    C     0.38150   0.17040   0.10990   0.01267  Uiso   1.00
C45    C     0.49460   0.20900   0.15510   0.01267  Uiso   1.00
C46    C     0.56500   0.24290   0.10910   0.01267  Uiso   1.00
C47    C     0.52160   0.23400   0.01930   0.01267  Uiso   1.00
C48    C     0.41040   0.19580   0.97690   0.01267  Uiso   1.00
C49    C     0.69580   0.40890   0.30290   0.01267  Uiso   1.00
C50    C     0.73760   0.45080   0.39890   0.01267  Uiso   1.00
C51    C     0.81140   0.41990   0.44760   0.01267  Uiso   1.00
C52    C     0.84340   0.34770   0.39880   0.01267  Uiso   1.00
C53    C     0.79950   0.30470   0.30080   0.01267  Uiso   1.00
C54    C     0.72590   0.33360   0.25330   0.01267  Uiso   1.00
C55    C     0.74910   0.26330   0.10520   0.01267  Uiso   1.00
C56    C     0.84190   0.34510   0.11240   0.01267  Uiso   1.00
C57    C     0.90990   0.32170   0.06710   0.01267  Uiso   1.00
C58    C     0.88750   0.21620   0.01620   0.01267  Uiso   1.00
C59    C     0.79550   0.13570   0.01170   0.01267  Uiso   1.00
C60    C     0.72450   0.15780   0.05360   0.01267  Uiso   1.00
C61    C     0.87420   0.56160   0.60300   0.01267  Uiso   1.00
C62    C     0.87400   0.57980   0.69290   0.01267  Uiso   1.00
C63    C     0.90320   0.68390   0.75290   0.01267  Uiso   1.00
C64    C     0.93020   0.76880   0.72450   0.01267  Uiso   1.00
C65    C     0.92750   0.74860   0.63420   0.01267  Uiso   1.00
C66    C     0.90150   0.64790   0.57390   0.01267  Uiso   1.00
C67    C     0.96420   0.88090   0.79170   0.01267  Uiso   1.00
C68    C     0.96290   0.19340   0.96800   0.01267  Uiso   1.00
N1     N     0.14970   0.54310   0.45400   0.01267  Uiso   1.00
N2     N     0.31990   0.71280   0.84520   0.01267  Uiso   1.00
N3     N     0.85030   0.45690   0.54600   0.01267  Uiso   1.00
N4     N     0.68010   0.28720   0.15480   0.01267  Uiso   1.00
O1     O     0.95490   0.80050   0.23740   0.01267  Uiso   1.00
O2     O     0.12860   0.88620   0.26650   0.01267  Uiso   1.00
O3     O     0.81350   0.86080   0.09760   0.01267  Uiso   1.00
O4     O     0.84000   0.91200   0.97910   0.01267  Uiso   1.00
O5     O     0.96360   0.73430   0.03820   0.01267  Uiso   1.00
O6     O     0.02320   0.04610   0.24330   0.01267  Uiso   1.00
O7     O     0.02380   0.10780   0.12540   0.01267  Uiso   1.00
O8     O     0.05620   0.90580   0.07210   0.01267  Uiso   1.00
O9     O     0.04510   0.19950   0.76260   0.01267  Uiso   1.00
O10    O     0.87140   0.11380   0.73350   0.01267  Uiso   1.00
O11    O     0.18650   0.13920   0.90240   0.01267  Uiso   1.00
O12    O     0.16000   0.08800   0.02090   0.01267  Uiso   1.00
O13    O     0.03640   0.26570   0.96180   0.01267  Uiso   1.00
O14    O     0.97680   0.95390   0.75670   0.01267  Uiso   1.00
O15    O     0.97620   0.89220   0.87460   0.01267  Uiso   1.00
O16    O     0.94380   0.09420   0.92790   0.01267  Uiso   1.00
