data_JEWCAP_clean
_audit_creation_date              2014-07-02
_audit_creation_method            'Materials Studio'
_symmetry_space_group_name_H-M    'P1'
_symmetry_Int_Tables_number       1
_symmetry_cell_setting            triclinic
loop_
_symmetry_equiv_pos_as_xyz
  x,y,z
_cell_length_a                    13.0260
_cell_length_b                    14.6390
_cell_length_c                    25.7780
_cell_angle_alpha                 90.0000
_cell_angle_beta                  90.0000
_cell_angle_gamma                 110.1080
loop_
_atom_site_label
_atom_site_type_symbol
_atom_site_fract_x
_atom_site_fract_y
_atom_site_fract_z
_atom_site_U_iso_or_equiv
_atom_site_adp_type
_atom_site_occupancy
Cu1    Cu    0.22130   0.67830   0.64200   0.01267  Uiso   1.00
Cu2    Cu    0.17130   0.69040   0.52200   0.01267  Uiso   1.00
Cu3    Cu    0.47350   0.89490   0.81250   0.01267  Uiso   1.00
Cu4    Cu    0.03340   0.75640   0.60710   0.01267  Uiso   1.00
Cu5    Cu    0.27870   0.32170   0.14200   0.01267  Uiso   1.00
Cu6    Cu    0.32870   0.30960   0.02200   0.01267  Uiso   1.00
Cu7    Cu    0.02650   0.10510   0.31250   0.01267  Uiso   1.00
Cu8    Cu    0.46660   0.24360   0.10710   0.01267  Uiso   1.00
Cu9    Cu    0.77870   0.32170   0.35800   0.01267  Uiso   1.00
Cu10   Cu    0.82870   0.30960   0.47800   0.01267  Uiso   1.00
Cu11   Cu    0.52650   0.10510   0.18750   0.01267  Uiso   1.00
Cu12   Cu    0.96660   0.24360   0.39290   0.01267  Uiso   1.00
Cu13   Cu    0.72130   0.67830   0.85800   0.01267  Uiso   1.00
Cu14   Cu    0.67130   0.69040   0.97800   0.01267  Uiso   1.00
Cu15   Cu    0.97350   0.89490   0.68750   0.01267  Uiso   1.00
Cu16   Cu    0.53340   0.75640   0.89290   0.01267  Uiso   1.00
H1     H     0.39670   0.72890   0.77010   0.01267  Uiso   1.00
H2     H     0.00720   0.44490   0.44830   0.01267  Uiso   1.00
H3     H     0.26510   0.83540   0.70210   0.01267  Uiso   1.00
H4     H     0.38930   0.57340   0.74510   0.01267  Uiso   1.00
H5     H     0.46600   0.52000   0.68100   0.01267  Uiso   1.00
H6     H     0.20440   0.47720   0.67600   0.01267  Uiso   1.00
H7     H     0.16320   0.52000   0.40050   0.01267  Uiso   1.00
H8     H     0.22300   0.65420   0.35080   0.01267  Uiso   1.00
H9     H     0.33650   0.65530   0.46570   0.01267  Uiso   1.00
H10    H     0.28380   0.98050   0.71840   0.01267  Uiso   1.00
H11    H     0.27960   0.08270   0.78580   0.01267  Uiso   1.00
H12    H     0.52930   0.07840   0.74340   0.01267  Uiso   1.00
H13    H     0.32180   0.48770   0.61520   0.01267  Uiso   1.00
H14    H     0.36700   0.61300   0.60060   0.01267  Uiso   1.00
H15    H     0.45400   0.54550   0.58970   0.01267  Uiso   1.00
H16    H     0.56400   0.68330   0.71030   0.01267  Uiso   1.00
H17    H     0.59840   0.66180   0.64640   0.01267  Uiso   1.00
H18    H     0.51150   0.72940   0.65730   0.01267  Uiso   1.00
H19    H     0.20960   0.33310   0.72600   0.01267  Uiso   1.00
H20    H     0.33300   0.38870   0.69220   0.01267  Uiso   1.00
H21    H     0.32620   0.40810   0.75950   0.01267  Uiso   1.00
H22    H     0.09430   0.43130   0.75110   0.01267  Uiso   1.00
H23    H     0.20130   0.50990   0.78880   0.01267  Uiso   1.00
H24    H     0.13980   0.55780   0.73980   0.01267  Uiso   1.00
H25    H     0.33450   0.77040   0.41610   0.01267  Uiso   1.00
H26    H     0.25350   0.82010   0.37850   0.01267  Uiso   1.00
H27    H     0.21450   0.78130   0.44260   0.01267  Uiso   1.00
H28    H     0.06790   0.71210   0.34790   0.01267  Uiso   1.00
H29    H     0.02730   0.58500   0.35620   0.01267  Uiso   1.00
H30    H     0.02620   0.66030   0.40950   0.01267  Uiso   1.00
H31    H     0.24110   0.49430   0.50670   0.01267  Uiso   1.00
H32    H     0.27360   0.43740   0.45190   0.01267  Uiso   1.00
H33    H     0.37880   0.51180   0.49210   0.01267  Uiso   1.00
H34    H     0.39280   0.66260   0.37530   0.01267  Uiso   1.00
H35    H     0.46810   0.61000   0.41470   0.01267  Uiso   1.00
H36    H     0.36290   0.53560   0.37460   0.01267  Uiso   1.00
H37    H     0.14150   0.91940   0.78680   0.01267  Uiso   1.00
H38    H     0.16950   0.96970   0.84960   0.01267  Uiso   1.00
H39    H     0.22390   0.88040   0.82950   0.01267  Uiso   1.00
H40    H     0.47540   0.08340   0.84610   0.01267  Uiso   1.00
H41    H     0.35910   0.97670   0.84490   0.01267  Uiso   1.00
H42    H     0.34750   0.08730   0.86610   0.01267  Uiso   1.00
H43    H     0.48760   0.96350   0.67110   0.01267  Uiso   1.00
H44    H     0.53820   0.08440   0.64840   0.01267  Uiso   1.00
H45    H     0.39710   0.01720   0.64480   0.01267  Uiso   1.00
H46    H     0.50130   0.21910   0.70070   0.01267  Uiso   1.00
H47    H     0.41470   0.18430   0.75530   0.01267  Uiso   1.00
H48    H     0.36120   0.15190   0.69240   0.01267  Uiso   1.00
H49    H     0.10330   0.27110   0.27010   0.01267  Uiso   1.00
H50    H     0.49280   0.55510   0.94830   0.01267  Uiso   1.00
H51    H     0.23490   0.16460   0.20210   0.01267  Uiso   1.00
H52    H     0.11070   0.42660   0.24510   0.01267  Uiso   1.00
H53    H     0.03400   0.48000   0.18100   0.01267  Uiso   1.00
H54    H     0.29560   0.52280   0.17600   0.01267  Uiso   1.00
H55    H     0.33680   0.48000   0.90050   0.01267  Uiso   1.00
H56    H     0.27700   0.34580   0.85080   0.01267  Uiso   1.00
H57    H     0.16350   0.34470   0.96570   0.01267  Uiso   1.00
H58    H     0.21620   0.01950   0.21840   0.01267  Uiso   1.00
H59    H     0.22040   0.91730   0.28580   0.01267  Uiso   1.00
H60    H     0.97070   0.92160   0.24340   0.01267  Uiso   1.00
H61    H     0.17820   0.51230   0.11520   0.01267  Uiso   1.00
H62    H     0.13300   0.38700   0.10060   0.01267  Uiso   1.00
H63    H     0.04600   0.45450   0.08970   0.01267  Uiso   1.00
H64    H     0.93600   0.31670   0.21030   0.01267  Uiso   1.00
H65    H     0.90160   0.33820   0.14640   0.01267  Uiso   1.00
H66    H     0.98850   0.27060   0.15730   0.01267  Uiso   1.00
H67    H     0.29040   0.66690   0.22600   0.01267  Uiso   1.00
H68    H     0.16700   0.61130   0.19220   0.01267  Uiso   1.00
H69    H     0.17380   0.59190   0.25950   0.01267  Uiso   1.00
H70    H     0.40570   0.56870   0.25110   0.01267  Uiso   1.00
H71    H     0.29870   0.49010   0.28880   0.01267  Uiso   1.00
H72    H     0.36020   0.44220   0.23980   0.01267  Uiso   1.00
H73    H     0.16550   0.22960   0.91610   0.01267  Uiso   1.00
H74    H     0.24650   0.17990   0.87850   0.01267  Uiso   1.00
H75    H     0.28550   0.21870   0.94260   0.01267  Uiso   1.00
H76    H     0.43210   0.28790   0.84790   0.01267  Uiso   1.00
H77    H     0.47270   0.41500   0.85620   0.01267  Uiso   1.00
H78    H     0.47380   0.33970   0.90950   0.01267  Uiso   1.00
H79    H     0.25890   0.50570   0.00670   0.01267  Uiso   1.00
H80    H     0.22640   0.56260   0.95190   0.01267  Uiso   1.00
H81    H     0.12120   0.48820   0.99210   0.01267  Uiso   1.00
H82    H     0.10720   0.33740   0.87530   0.01267  Uiso   1.00
H83    H     0.03190   0.39000   0.91470   0.01267  Uiso   1.00
H84    H     0.13710   0.46440   0.87460   0.01267  Uiso   1.00
H85    H     0.35850   0.08060   0.28680   0.01267  Uiso   1.00
H86    H     0.33050   0.03030   0.34960   0.01267  Uiso   1.00
H87    H     0.27610   0.11960   0.32950   0.01267  Uiso   1.00
H88    H     0.02460   0.91660   0.34610   0.01267  Uiso   1.00
H89    H     0.14090   0.02330   0.34490   0.01267  Uiso   1.00
H90    H     0.15250   0.91270   0.36610   0.01267  Uiso   1.00
H91    H     0.01240   0.03650   0.17110   0.01267  Uiso   1.00
H92    H     0.96180   0.91560   0.14840   0.01267  Uiso   1.00
H93    H     0.10290   0.98280   0.14480   0.01267  Uiso   1.00
H94    H     0.99870   0.78090   0.20070   0.01267  Uiso   1.00
H95    H     0.08530   0.81570   0.25530   0.01267  Uiso   1.00
H96    H     0.13880   0.84810   0.19240   0.01267  Uiso   1.00
H97    H     0.60330   0.27110   0.22990   0.01267  Uiso   1.00
H98    H     0.99280   0.55510   0.55170   0.01267  Uiso   1.00
H99    H     0.73490   0.16460   0.29790   0.01267  Uiso   1.00
H100   H     0.61070   0.42660   0.25490   0.01267  Uiso   1.00
H101   H     0.53400   0.48000   0.31900   0.01267  Uiso   1.00
H102   H     0.79560   0.52280   0.32400   0.01267  Uiso   1.00
H103   H     0.83680   0.48000   0.59950   0.01267  Uiso   1.00
H104   H     0.77700   0.34580   0.64920   0.01267  Uiso   1.00
H105   H     0.66350   0.34470   0.53430   0.01267  Uiso   1.00
H106   H     0.71620   0.01950   0.28160   0.01267  Uiso   1.00
H107   H     0.72040   0.91730   0.21420   0.01267  Uiso   1.00
H108   H     0.47070   0.92160   0.25660   0.01267  Uiso   1.00
H109   H     0.67820   0.51230   0.38480   0.01267  Uiso   1.00
H110   H     0.63300   0.38700   0.39940   0.01267  Uiso   1.00
H111   H     0.54600   0.45450   0.41030   0.01267  Uiso   1.00
H112   H     0.43600   0.31670   0.28970   0.01267  Uiso   1.00
H113   H     0.40160   0.33820   0.35360   0.01267  Uiso   1.00
H114   H     0.48850   0.27060   0.34270   0.01267  Uiso   1.00
H115   H     0.79040   0.66690   0.27400   0.01267  Uiso   1.00
H116   H     0.66700   0.61130   0.30780   0.01267  Uiso   1.00
H117   H     0.67380   0.59190   0.24050   0.01267  Uiso   1.00
H118   H     0.90570   0.56870   0.24890   0.01267  Uiso   1.00
H119   H     0.79870   0.49010   0.21120   0.01267  Uiso   1.00
H120   H     0.86020   0.44220   0.26020   0.01267  Uiso   1.00
H121   H     0.66550   0.22960   0.58390   0.01267  Uiso   1.00
H122   H     0.74650   0.17990   0.62150   0.01267  Uiso   1.00
H123   H     0.78550   0.21870   0.55740   0.01267  Uiso   1.00
H124   H     0.93210   0.28790   0.65210   0.01267  Uiso   1.00
H125   H     0.97270   0.41500   0.64380   0.01267  Uiso   1.00
H126   H     0.97380   0.33970   0.59050   0.01267  Uiso   1.00
H127   H     0.75890   0.50570   0.49330   0.01267  Uiso   1.00
H128   H     0.72640   0.56260   0.54810   0.01267  Uiso   1.00
H129   H     0.62120   0.48820   0.50790   0.01267  Uiso   1.00
H130   H     0.60720   0.33740   0.62470   0.01267  Uiso   1.00
H131   H     0.53190   0.39000   0.58530   0.01267  Uiso   1.00
H132   H     0.63710   0.46440   0.62540   0.01267  Uiso   1.00
H133   H     0.85850   0.08060   0.21320   0.01267  Uiso   1.00
H134   H     0.83050   0.03030   0.15040   0.01267  Uiso   1.00
H135   H     0.77610   0.11960   0.17050   0.01267  Uiso   1.00
H136   H     0.52460   0.91660   0.15390   0.01267  Uiso   1.00
H137   H     0.64090   0.02330   0.15510   0.01267  Uiso   1.00
H138   H     0.65250   0.91270   0.13390   0.01267  Uiso   1.00
H139   H     0.51240   0.03650   0.32890   0.01267  Uiso   1.00
H140   H     0.46180   0.91560   0.35160   0.01267  Uiso   1.00
H141   H     0.60290   0.98280   0.35520   0.01267  Uiso   1.00
H142   H     0.49870   0.78090   0.29930   0.01267  Uiso   1.00
H143   H     0.58530   0.81570   0.24470   0.01267  Uiso   1.00
H144   H     0.63880   0.84810   0.30760   0.01267  Uiso   1.00
H145   H     0.89670   0.72890   0.72990   0.01267  Uiso   1.00
H146   H     0.50720   0.44490   0.05170   0.01267  Uiso   1.00
H147   H     0.76510   0.83540   0.79790   0.01267  Uiso   1.00
H148   H     0.88930   0.57340   0.75490   0.01267  Uiso   1.00
H149   H     0.96600   0.52000   0.81900   0.01267  Uiso   1.00
H150   H     0.70440   0.47720   0.82400   0.01267  Uiso   1.00
H151   H     0.66320   0.52000   0.09950   0.01267  Uiso   1.00
H152   H     0.72300   0.65420   0.14920   0.01267  Uiso   1.00
H153   H     0.83650   0.65530   0.03430   0.01267  Uiso   1.00
H154   H     0.78380   0.98050   0.78160   0.01267  Uiso   1.00
H155   H     0.77960   0.08270   0.71420   0.01267  Uiso   1.00
H156   H     0.02930   0.07840   0.75660   0.01267  Uiso   1.00
H157   H     0.82180   0.48770   0.88480   0.01267  Uiso   1.00
H158   H     0.86700   0.61300   0.89940   0.01267  Uiso   1.00
H159   H     0.95400   0.54550   0.91030   0.01267  Uiso   1.00
H160   H     0.06400   0.68330   0.78970   0.01267  Uiso   1.00
H161   H     0.09840   0.66180   0.85360   0.01267  Uiso   1.00
H162   H     0.01150   0.72940   0.84270   0.01267  Uiso   1.00
H163   H     0.70960   0.33310   0.77400   0.01267  Uiso   1.00
H164   H     0.83300   0.38870   0.80780   0.01267  Uiso   1.00
H165   H     0.82620   0.40810   0.74050   0.01267  Uiso   1.00
H166   H     0.59430   0.43130   0.74890   0.01267  Uiso   1.00
H167   H     0.70130   0.50990   0.71120   0.01267  Uiso   1.00
H168   H     0.63980   0.55780   0.76020   0.01267  Uiso   1.00
H169   H     0.83450   0.77040   0.08390   0.01267  Uiso   1.00
H170   H     0.75350   0.82010   0.12150   0.01267  Uiso   1.00
H171   H     0.71450   0.78130   0.05740   0.01267  Uiso   1.00
H172   H     0.56790   0.71210   0.15210   0.01267  Uiso   1.00
H173   H     0.52730   0.58500   0.14380   0.01267  Uiso   1.00
H174   H     0.52620   0.66030   0.09050   0.01267  Uiso   1.00
H175   H     0.74110   0.49430   0.99330   0.01267  Uiso   1.00
H176   H     0.77360   0.43740   0.04810   0.01267  Uiso   1.00
H177   H     0.87880   0.51180   0.00790   0.01267  Uiso   1.00
H178   H     0.89280   0.66260   0.12470   0.01267  Uiso   1.00
H179   H     0.96810   0.61000   0.08530   0.01267  Uiso   1.00
H180   H     0.86290   0.53560   0.12540   0.01267  Uiso   1.00
H181   H     0.64150   0.91940   0.71320   0.01267  Uiso   1.00
H182   H     0.66950   0.96970   0.65040   0.01267  Uiso   1.00
H183   H     0.72390   0.88040   0.67050   0.01267  Uiso   1.00
H184   H     0.97540   0.08340   0.65390   0.01267  Uiso   1.00
H185   H     0.85910   0.97670   0.65510   0.01267  Uiso   1.00
H186   H     0.84750   0.08730   0.63390   0.01267  Uiso   1.00
H187   H     0.98760   0.96350   0.82890   0.01267  Uiso   1.00
H188   H     0.03820   0.08440   0.85160   0.01267  Uiso   1.00
H189   H     0.89710   0.01720   0.85520   0.01267  Uiso   1.00
H190   H     0.00130   0.21910   0.79930   0.01267  Uiso   1.00
H191   H     0.91470   0.18430   0.74470   0.01267  Uiso   1.00
H192   H     0.86120   0.15190   0.80760   0.01267  Uiso   1.00
C1     C     0.35000   0.73670   0.73690   0.01267  Uiso   1.00
C2     C     0.03110   0.50200   0.47710   0.01267  Uiso   1.00
C3     C     0.32480   0.82970   0.72980   0.01267  Uiso   1.00
C4     C     0.34890   0.57560   0.70880   0.01267  Uiso   1.00
C5     C     0.43720   0.57790   0.66940   0.01267  Uiso   1.00
C6     C     0.24680   0.48650   0.71270   0.01267  Uiso   1.00
C7     C     0.19210   0.58480   0.42410   0.01267  Uiso   1.00
C8     C     0.18590   0.66430   0.38680   0.01267  Uiso   1.00
C9     C     0.30660   0.58990   0.44250   0.01267  Uiso   1.00
C10    C     0.34850   0.99090   0.74640   0.01267  Uiso   1.00
C11    C     0.30250   0.02110   0.79670   0.01267  Uiso   1.00
C12    C     0.45620   0.06810   0.72090   0.01267  Uiso   1.00
C13    C     0.53460   0.66940   0.67090   0.01267  Uiso   1.00
C14    C     0.39160   0.55420   0.61480   0.01267  Uiso   1.00
C15    C     0.28170   0.39740   0.72330   0.01267  Uiso   1.00
C16    C     0.16470   0.49720   0.75070   0.01267  Uiso   1.00
C17    C     0.25200   0.76670   0.40760   0.01267  Uiso   1.00
C18    C     0.06820   0.65480   0.37420   0.01267  Uiso   1.00
C19    C     0.29940   0.50200   0.47570   0.01267  Uiso   1.00
C20    C     0.38850   0.60010   0.39850   0.01267  Uiso   1.00
C21    C     0.20220   0.94190   0.81710   0.01267  Uiso   1.00
C22    C     0.38830   0.05460   0.83930   0.01267  Uiso   1.00
C23    C     0.47050   0.03030   0.66740   0.01267  Uiso   1.00
C24    C     0.43150   0.16280   0.71700   0.01267  Uiso   1.00
C25    C     0.15000   0.26330   0.23690   0.01267  Uiso   1.00
C26    C     0.46890   0.49800   0.97710   0.01267  Uiso   1.00
C27    C     0.17520   0.17030   0.22980   0.01267  Uiso   1.00
C28    C     0.15110   0.42440   0.20880   0.01267  Uiso   1.00
C29    C     0.06280   0.42210   0.16940   0.01267  Uiso   1.00
C30    C     0.25320   0.51350   0.21270   0.01267  Uiso   1.00
C31    C     0.30790   0.41520   0.92410   0.01267  Uiso   1.00
C32    C     0.31410   0.33570   0.88680   0.01267  Uiso   1.00
C33    C     0.19340   0.41010   0.94250   0.01267  Uiso   1.00
C34    C     0.15150   0.00910   0.24640   0.01267  Uiso   1.00
C35    C     0.19750   0.97890   0.29670   0.01267  Uiso   1.00
C36    C     0.04380   0.93190   0.22090   0.01267  Uiso   1.00
C37    C     0.96540   0.33060   0.17090   0.01267  Uiso   1.00
C38    C     0.10840   0.44580   0.11480   0.01267  Uiso   1.00
C39    C     0.21830   0.60260   0.22330   0.01267  Uiso   1.00
C40    C     0.33530   0.50280   0.25070   0.01267  Uiso   1.00
C41    C     0.24800   0.23330   0.90760   0.01267  Uiso   1.00
C42    C     0.43180   0.34520   0.87420   0.01267  Uiso   1.00
C43    C     0.20060   0.49800   0.97570   0.01267  Uiso   1.00
C44    C     0.11150   0.39990   0.89850   0.01267  Uiso   1.00
C45    C     0.29780   0.05810   0.31710   0.01267  Uiso   1.00
C46    C     0.11170   0.94540   0.33930   0.01267  Uiso   1.00
C47    C     0.02950   0.96970   0.16740   0.01267  Uiso   1.00
C48    C     0.06850   0.83720   0.21700   0.01267  Uiso   1.00
C49    C     0.65000   0.26330   0.26310   0.01267  Uiso   1.00
C50    C     0.96890   0.49800   0.52290   0.01267  Uiso   1.00
C51    C     0.67520   0.17030   0.27020   0.01267  Uiso   1.00
C52    C     0.65110   0.42440   0.29120   0.01267  Uiso   1.00
C53    C     0.56280   0.42210   0.33060   0.01267  Uiso   1.00
C54    C     0.75320   0.51350   0.28730   0.01267  Uiso   1.00
C55    C     0.80790   0.41520   0.57590   0.01267  Uiso   1.00
C56    C     0.81410   0.33570   0.61320   0.01267  Uiso   1.00
C57    C     0.69340   0.41010   0.55750   0.01267  Uiso   1.00
C58    C     0.65150   0.00910   0.25360   0.01267  Uiso   1.00
C59    C     0.69750   0.97890   0.20330   0.01267  Uiso   1.00
C60    C     0.54380   0.93190   0.27910   0.01267  Uiso   1.00
C61    C     0.46540   0.33060   0.32910   0.01267  Uiso   1.00
C62    C     0.60840   0.44580   0.38520   0.01267  Uiso   1.00
C63    C     0.71830   0.60260   0.27670   0.01267  Uiso   1.00
C64    C     0.83530   0.50280   0.24930   0.01267  Uiso   1.00
C65    C     0.74800   0.23330   0.59240   0.01267  Uiso   1.00
C66    C     0.93180   0.34520   0.62580   0.01267  Uiso   1.00
C67    C     0.70060   0.49800   0.52430   0.01267  Uiso   1.00
C68    C     0.61150   0.39990   0.60150   0.01267  Uiso   1.00
C69    C     0.79780   0.05810   0.18290   0.01267  Uiso   1.00
C70    C     0.61170   0.94540   0.16070   0.01267  Uiso   1.00
C71    C     0.52950   0.96970   0.33260   0.01267  Uiso   1.00
C72    C     0.56850   0.83720   0.28300   0.01267  Uiso   1.00
C73    C     0.85000   0.73670   0.76310   0.01267  Uiso   1.00
C74    C     0.53110   0.50200   0.02290   0.01267  Uiso   1.00
C75    C     0.82480   0.82970   0.77020   0.01267  Uiso   1.00
C76    C     0.84890   0.57560   0.79120   0.01267  Uiso   1.00
C77    C     0.93720   0.57790   0.83060   0.01267  Uiso   1.00
C78    C     0.74680   0.48650   0.78730   0.01267  Uiso   1.00
C79    C     0.69210   0.58480   0.07590   0.01267  Uiso   1.00
C80    C     0.68590   0.66430   0.11320   0.01267  Uiso   1.00
C81    C     0.80660   0.58990   0.05750   0.01267  Uiso   1.00
C82    C     0.84850   0.99090   0.75360   0.01267  Uiso   1.00
C83    C     0.80250   0.02110   0.70330   0.01267  Uiso   1.00
C84    C     0.95620   0.06810   0.77910   0.01267  Uiso   1.00
C85    C     0.03460   0.66940   0.82910   0.01267  Uiso   1.00
C86    C     0.89160   0.55420   0.88520   0.01267  Uiso   1.00
C87    C     0.78170   0.39740   0.77670   0.01267  Uiso   1.00
C88    C     0.66470   0.49720   0.74930   0.01267  Uiso   1.00
C89    C     0.75200   0.76670   0.09240   0.01267  Uiso   1.00
C90    C     0.56820   0.65480   0.12580   0.01267  Uiso   1.00
C91    C     0.79940   0.50200   0.02430   0.01267  Uiso   1.00
C92    C     0.88850   0.60010   0.10150   0.01267  Uiso   1.00
C93    C     0.70220   0.94190   0.68290   0.01267  Uiso   1.00
C94    C     0.88830   0.05460   0.66070   0.01267  Uiso   1.00
C95    C     0.97050   0.03030   0.83260   0.01267  Uiso   1.00
C96    C     0.93150   0.16280   0.78300   0.01267  Uiso   1.00
N1     N     0.31680   0.66650   0.70230   0.01267  Uiso   1.00
N2     N     0.11940   0.57890   0.47280   0.01267  Uiso   1.00
N3     N     0.37920   0.90040   0.75890   0.01267  Uiso   1.00
N4     N     0.18320   0.33350   0.20230   0.01267  Uiso   1.00
N5     N     0.38060   0.42110   0.97280   0.01267  Uiso   1.00
N6     N     0.12080   0.09960   0.25890   0.01267  Uiso   1.00
N7     N     0.68320   0.33350   0.29770   0.01267  Uiso   1.00
N8     N     0.88060   0.42110   0.52720   0.01267  Uiso   1.00
N9     N     0.62080   0.09960   0.24110   0.01267  Uiso   1.00
N10    N     0.81680   0.66650   0.79770   0.01267  Uiso   1.00
N11    N     0.61940   0.57890   0.02720   0.01267  Uiso   1.00
N12    N     0.87920   0.90040   0.74110   0.01267  Uiso   1.00
Cl1    Cl    0.62140   0.91520   0.85480   0.01267  Uiso   1.00
Cl2    Cl    0.30560   0.77250   0.57360   0.01267  Uiso   1.00
Cl3    Cl    0.02510   0.76050   0.51840   0.01267  Uiso   1.00
Cl4    Cl    0.03900   0.62700   0.65480   0.01267  Uiso   1.00
Cl5    Cl    0.87860   0.08480   0.35480   0.01267  Uiso   1.00
Cl6    Cl    0.19440   0.22750   0.07360   0.01267  Uiso   1.00
Cl7    Cl    0.47490   0.23950   0.01840   0.01267  Uiso   1.00
Cl8    Cl    0.46100   0.37300   0.15480   0.01267  Uiso   1.00
Cl9    Cl    0.37860   0.08480   0.14520   0.01267  Uiso   1.00
Cl10   Cl    0.69440   0.22750   0.42640   0.01267  Uiso   1.00
Cl11   Cl    0.97490   0.23950   0.48160   0.01267  Uiso   1.00
Cl12   Cl    0.96100   0.37300   0.34520   0.01267  Uiso   1.00
Cl13   Cl    0.12140   0.91520   0.64520   0.01267  Uiso   1.00
Cl14   Cl    0.80560   0.77250   0.92640   0.01267  Uiso   1.00
Cl15   Cl    0.52510   0.76050   0.98160   0.01267  Uiso   1.00
Cl16   Cl    0.53900   0.62700   0.84520   0.01267  Uiso   1.00
