data_JOGDAL_charged
_audit_creation_date              2014-07-02
_audit_creation_method            'Materials Studio'
_symmetry_space_group_name_H-M    'P1'
_symmetry_Int_Tables_number       1
_symmetry_cell_setting            triclinic
loop_
_symmetry_equiv_pos_as_xyz
  x,y,z
_cell_length_a                    12.4678
_cell_length_b                    13.6806
_cell_length_c                    20.3850
_cell_angle_alpha                 81.5990
_cell_angle_beta                  88.5420
_cell_angle_gamma                 82.9670
loop_
_atom_site_label
_atom_site_type_symbol
_atom_site_fract_x
_atom_site_fract_y
_atom_site_fract_z
_atom_site_U_iso_or_equiv
_atom_site_adp_type
_atom_site_occupancy
Ga1    Ga    0.67960   0.60247   0.13403   0.01267  Uiso   1.00
Ga2    Ga    0.56705   0.73929   0.25380   0.01267  Uiso   1.00
Ga3    Ga    0.85654   0.62425   0.25902   0.01267  Uiso   1.00
Ga4    Ga    0.76276   0.83552   0.12169   0.01267  Uiso   1.00
Ga5    Ga    0.75031   0.78154   0.38986   0.01267  Uiso   1.00
Ga6    Ga    0.01809   0.68366   0.38005   0.01267  Uiso   1.00
Ga7    Ga    0.94387   0.87877   0.25635   0.01267  Uiso   1.00
Ga8    Ga    0.84039   0.06501   0.13208   0.01267  Uiso   1.00
Ga9    Ga    0.65465   0.99287   0.25317   0.01267  Uiso   1.00
Ga10   Ga    0.48681   0.88794   0.37351   0.01267  Uiso   1.00
Ga11   Ga    0.32040   0.39753   0.86597   0.01267  Uiso   1.00
Ga12   Ga    0.43295   0.26071   0.74620   0.01267  Uiso   1.00
Ga13   Ga    0.14346   0.37575   0.74098   0.01267  Uiso   1.00
Ga14   Ga    0.23724   0.16448   0.87831   0.01267  Uiso   1.00
Ga15   Ga    0.24969   0.21846   0.61014   0.01267  Uiso   1.00
Ga16   Ga    0.98191   0.31634   0.61995   0.01267  Uiso   1.00
Ga17   Ga    0.05613   0.12123   0.74365   0.01267  Uiso   1.00
Ga18   Ga    0.15961   0.93499   0.86792   0.01267  Uiso   1.00
Ga19   Ga    0.34535   0.00713   0.74683   0.01267  Uiso   1.00
Ga20   Ga    0.51319   0.11206   0.62649   0.01267  Uiso   1.00
H1     H     0.57080   0.42100   0.15270   0.01267  Uiso   1.00
H2     H     0.57790   0.31250   0.97590   0.01267  Uiso   1.00
H3     H     0.72920   0.55510   0.99590   0.01267  Uiso   1.00
H4     H     0.94340   0.13130   0.99650   0.01267  Uiso   1.00
H5     H     0.00740   0.27760   0.94260   0.01267  Uiso   1.00
H6     H     0.90610   0.41950   0.10110   0.01267  Uiso   1.00
H7     H     0.83750   0.27340   0.15010   0.01267  Uiso   1.00
H8     H     0.03480   0.46150   0.93710   0.01267  Uiso   1.00
H9     H     0.74160   0.51180   0.89650   0.01267  Uiso   1.00
H10    H     0.63950   0.46430   0.87030   0.01267  Uiso   1.00
H11    H     0.75060   0.39250   0.89320   0.01267  Uiso   1.00
H12    H     0.48670   0.23370   0.05490   0.01267  Uiso   1.00
H13    H     0.42060   0.30430   0.10430   0.01267  Uiso   1.00
H14    H     0.52840   0.23010   0.13060   0.01267  Uiso   1.00
H15    H     0.26760   0.96410   0.33510   0.01267  Uiso   1.00
H16    H     0.09830   0.01650   0.38090   0.01267  Uiso   1.00
H17    H     0.24100   0.97380   0.56390   0.01267  Uiso   1.00
H18    H     0.40780   0.91190   0.51610   0.01267  Uiso   1.00
H19    H     0.03020   0.08370   0.53230   0.01267  Uiso   1.00
H20    H     0.22410   0.75720   0.41960   0.01267  Uiso   1.00
H21    H     0.38920   0.69330   0.47320   0.01267  Uiso   1.00
H22    H     0.27770   0.41860   0.50820   0.01267  Uiso   1.00
H23    H     0.10880   0.49290   0.46420   0.01267  Uiso   1.00
H24    H     0.46950   0.43270   0.54320   0.01267  Uiso   1.00
H25    H     0.42920   0.57900   0.84730   0.01267  Uiso   1.00
H26    H     0.42210   0.68750   0.02410   0.01267  Uiso   1.00
H27    H     0.27080   0.44490   0.00410   0.01267  Uiso   1.00
H28    H     0.05660   0.86870   0.00350   0.01267  Uiso   1.00
H29    H     0.99260   0.72240   0.05740   0.01267  Uiso   1.00
H30    H     0.09390   0.58050   0.89890   0.01267  Uiso   1.00
H31    H     0.16250   0.72660   0.84990   0.01267  Uiso   1.00
H32    H     0.96520   0.53850   0.06290   0.01267  Uiso   1.00
H33    H     0.25840   0.48820   0.10350   0.01267  Uiso   1.00
H34    H     0.36050   0.53570   0.12970   0.01267  Uiso   1.00
H35    H     0.24940   0.60750   0.10680   0.01267  Uiso   1.00
H36    H     0.51330   0.76630   0.94510   0.01267  Uiso   1.00
H37    H     0.57940   0.69570   0.89570   0.01267  Uiso   1.00
H38    H     0.47160   0.76990   0.86940   0.01267  Uiso   1.00
H39    H     0.73240   0.03590   0.66490   0.01267  Uiso   1.00
H40    H     0.90170   0.98350   0.61910   0.01267  Uiso   1.00
H41    H     0.75900   0.02620   0.43610   0.01267  Uiso   1.00
H42    H     0.59220   0.08810   0.48390   0.01267  Uiso   1.00
H43    H     0.96980   0.91630   0.46770   0.01267  Uiso   1.00
H44    H     0.77590   0.24280   0.58040   0.01267  Uiso   1.00
H45    H     0.61080   0.30670   0.52680   0.01267  Uiso   1.00
H46    H     0.72230   0.58140   0.49180   0.01267  Uiso   1.00
H47    H     0.89120   0.50710   0.53580   0.01267  Uiso   1.00
H48    H     0.53050   0.56730   0.45680   0.01267  Uiso   1.00
C1     C     0.59040   0.42530   0.10460   0.01267  Uiso   1.00
C2     C     0.56270   0.35510   0.06800   0.01267  Uiso   1.00
C3     C     0.59760   0.36290   0.00300   0.01267  Uiso   1.00
C4     C     0.65770   0.43500   0.97250   0.01267  Uiso   1.00
C5     C     0.68220   0.50280   0.01320   0.01267  Uiso   1.00
C6     C     0.16870   0.53500   0.46490   0.01267  Uiso   1.00
C7     C     0.26690   0.49180   0.49250   0.01267  Uiso   1.00
C8     C     0.35090   0.54850   0.49880   0.01267  Uiso   1.00
C9     C     0.33200   0.64860   0.47120   0.01267  Uiso   1.00
C10    C     0.23400   0.68610   0.44100   0.01267  Uiso   1.00
C11    C     0.45740   0.50450   0.52360   0.01267  Uiso   1.00
C12    C     0.93480   0.19240   0.01860   0.01267  Uiso   1.00
C13    C     0.97260   0.27840   0.98730   0.01267  Uiso   1.00
C14    C     0.96420   0.36610   0.01520   0.01267  Uiso   1.00
C15    C     0.91420   0.36010   0.07720   0.01267  Uiso   1.00
C16    C     0.87560   0.27380   0.10630   0.01267  Uiso   1.00
C17    C     0.00340   0.45790   0.98290   0.01267  Uiso   1.00
C18    C     0.34310   0.93650   0.48760   0.01267  Uiso   1.00
C19    C     0.26120   0.96570   0.38390   0.01267  Uiso   1.00
C20    C     0.16220   0.99670   0.41060   0.01267  Uiso   1.00
C21    C     0.24460   0.97070   0.51520   0.01267  Uiso   1.00
C22    C     0.15020   0.00100   0.47790   0.01267  Uiso   1.00
C23    C     0.04300   0.02750   0.50560   0.01267  Uiso   1.00
C24    C     0.70110   0.45240   0.90210   0.01267  Uiso   1.00
C25    C     0.49390   0.27400   0.09140   0.01267  Uiso   1.00
C26    C     0.40960   0.57470   0.89540   0.01267  Uiso   1.00
C27    C     0.43730   0.64490   0.93200   0.01267  Uiso   1.00
C28    C     0.40240   0.63710   0.99700   0.01267  Uiso   1.00
C29    C     0.34230   0.56500   0.02750   0.01267  Uiso   1.00
C30    C     0.31780   0.49720   0.98680   0.01267  Uiso   1.00
C31    C     0.83130   0.46500   0.53510   0.01267  Uiso   1.00
C32    C     0.73310   0.50820   0.50750   0.01267  Uiso   1.00
C33    C     0.64910   0.45150   0.50120   0.01267  Uiso   1.00
C34    C     0.66800   0.35140   0.52880   0.01267  Uiso   1.00
C35    C     0.76600   0.31390   0.55900   0.01267  Uiso   1.00
C36    C     0.54260   0.49550   0.47640   0.01267  Uiso   1.00
C37    C     0.06520   0.80760   0.98140   0.01267  Uiso   1.00
C38    C     0.02740   0.72160   0.01270   0.01267  Uiso   1.00
C39    C     0.03580   0.63390   0.98480   0.01267  Uiso   1.00
C40    C     0.08580   0.63990   0.92280   0.01267  Uiso   1.00
C41    C     0.12440   0.72620   0.89370   0.01267  Uiso   1.00
C42    C     0.99660   0.54210   0.01710   0.01267  Uiso   1.00
C43    C     0.65690   0.06350   0.51240   0.01267  Uiso   1.00
C44    C     0.73880   0.03430   0.61610   0.01267  Uiso   1.00
C45    C     0.83780   0.00330   0.58940   0.01267  Uiso   1.00
C46    C     0.75540   0.02930   0.48480   0.01267  Uiso   1.00
C47    C     0.84980   0.99900   0.52210   0.01267  Uiso   1.00
C48    C     0.95700   0.97250   0.49440   0.01267  Uiso   1.00
C49    C     0.29890   0.54760   0.09790   0.01267  Uiso   1.00
C50    C     0.50610   0.72600   0.90860   0.01267  Uiso   1.00
S1     S     0.52317   0.63238   0.18897   0.01267  Uiso   1.00
S2     S     0.81440   0.51374   0.19650   0.01267  Uiso   1.00
S3     S     0.72280   0.72624   0.05752   0.01267  Uiso   1.00
S4     S     0.99458   0.55729   0.32526   0.01267  Uiso   1.00
S5     S     0.90562   0.76345   0.19037   0.01267  Uiso   1.00
S6     S     0.70793   0.66646   0.32415   0.01267  Uiso   1.00
S7     S     0.61352   0.87974   0.18594   0.01267  Uiso   1.00
S8     S     0.81280   0.96842   0.05598   0.01267  Uiso   1.00
S9     S     0.08483   0.81296   0.31951   0.01267  Uiso   1.00
S10    S     0.98944   0.01591   0.19370   0.01267  Uiso   1.00
S11    S     0.89088   0.71877   0.45565   0.01267  Uiso   1.00
S12    S     0.79716   0.92304   0.32242   0.01267  Uiso   1.00
S13    S     0.69683   0.12768   0.18724   0.01267  Uiso   1.00
S14    S     0.60506   0.81871   0.45251   0.01267  Uiso   1.00
S15    S     0.51473   0.03707   0.31688   0.01267  Uiso   1.00
S16    S     0.42181   0.78387   0.31308   0.01267  Uiso   1.00
S17    S     0.47683   0.36762   0.81103   0.01267  Uiso   1.00
S18    S     0.18560   0.48626   0.80350   0.01267  Uiso   1.00
S19    S     0.27720   0.27376   0.94248   0.01267  Uiso   1.00
S20    S     0.00542   0.44271   0.67474   0.01267  Uiso   1.00
S21    S     0.09438   0.23655   0.80963   0.01267  Uiso   1.00
S22    S     0.29207   0.33354   0.67585   0.01267  Uiso   1.00
S23    S     0.38648   0.12026   0.81406   0.01267  Uiso   1.00
S24    S     0.18720   0.03158   0.94402   0.01267  Uiso   1.00
S25    S     0.91517   0.18704   0.68049   0.01267  Uiso   1.00
S26    S     0.01056   0.98409   0.80630   0.01267  Uiso   1.00
S27    S     0.10912   0.28123   0.54435   0.01267  Uiso   1.00
S28    S     0.20284   0.07696   0.67758   0.01267  Uiso   1.00
S29    S     0.30317   0.87232   0.81276   0.01267  Uiso   1.00
S30    S     0.39494   0.18129   0.54749   0.01267  Uiso   1.00
S31    S     0.48527   0.96293   0.68312   0.01267  Uiso   1.00
S32    S     0.57819   0.21613   0.68692   0.01267  Uiso   1.00
N1     N     0.64310   0.49840   0.07550   0.01267  Uiso   1.00
N2     N     0.15170   0.63170   0.43910   0.01267  Uiso   1.00
N3     N     0.88680   0.19050   0.07840   0.01267  Uiso   1.00
N4     N     0.34860   0.93770   0.42160   0.01267  Uiso   1.00
N5     N     0.35690   0.50160   0.92450   0.01267  Uiso   1.00
N6     N     0.84830   0.36830   0.56090   0.01267  Uiso   1.00
N7     N     0.11320   0.80950   0.92160   0.01267  Uiso   1.00
N8     N     0.65140   0.06230   0.57840   0.01267  Uiso   1.00
