data_KALFIO_clean
_audit_creation_date              2014-07-02
_audit_creation_method            'Materials Studio'
_symmetry_space_group_name_H-M    'P1'
_symmetry_Int_Tables_number       1
_symmetry_cell_setting            triclinic
loop_
_symmetry_equiv_pos_as_xyz
  x,y,z
_cell_length_a                    13.7257
_cell_length_b                    13.7257
_cell_length_c                    18.2323
_cell_angle_alpha                 103.9350
_cell_angle_beta                  103.9350
_cell_angle_gamma                 111.1150
loop_
_atom_site_label
_atom_site_type_symbol
_atom_site_fract_x
_atom_site_fract_y
_atom_site_fract_z
_atom_site_U_iso_or_equiv
_atom_site_adp_type
_atom_site_occupancy
Ni1    Ni    0.16599   0.64681   0.53598   0.01267  Uiso   1.00
Ni2    Ni    0.36999   0.88917   0.53598   0.01267  Uiso   1.00
Ni3    Ni    0.39681   0.41599   0.03598   0.01267  Uiso   1.00
Ni4    Ni    0.63917   0.61999   0.03598   0.01267  Uiso   1.00
H1     H     0.95590   0.58750   0.57220   0.01267  Uiso   1.00
H2     H     0.86060   0.48920   0.64220   0.01267  Uiso   1.00
H3     H     0.11240   0.40500   0.70540   0.01267  Uiso   1.00
H4     H     0.20280   0.51180   0.64000   0.01267  Uiso   1.00
H5     H     0.93120   0.30400   0.72260   0.01267  Uiso   1.00
H6     H     0.98620   0.52280   0.83260   0.01267  Uiso   1.00
H7     H     0.99850   0.27250   0.85860   0.01267  Uiso   1.00
H8     H     0.14930   0.27110   0.94040   0.01267  Uiso   1.00
H9     H     0.33050   0.59010   0.98940   0.01267  Uiso   1.00
H10    H     0.18070   0.60050   0.91260   0.01267  Uiso   1.00
H11    H     0.62830   0.90630   0.70940   0.01267  Uiso   1.00
H12    H     0.76160   0.94540   0.83360   0.01267  Uiso   1.00
H13    H     0.71700   0.84500   0.91320   0.01267  Uiso   1.00
H14    H     0.40350   0.65910   0.74860   0.01267  Uiso   1.00
H15    H     0.17490   0.73590   0.44480   0.01267  Uiso   1.00
H16    H     0.61630   0.98470   0.57220   0.01267  Uiso   1.00
H17    H     0.78160   0.15300   0.64220   0.01267  Uiso   1.00
H18    H     0.59300   0.30040   0.70540   0.01267  Uiso   1.00
H19    H     0.43720   0.12820   0.64000   0.01267  Uiso   1.00
H20    H     0.79140   0.41860   0.72260   0.01267  Uiso   1.00
H21    H     0.84640   0.30980   0.83260   0.01267  Uiso   1.00
H22    H     0.86010   0.58610   0.85860   0.01267  Uiso   1.00
H23    H     0.79110   0.66930   0.94040   0.01267  Uiso   1.00
H24    H     0.65890   0.39930   0.98940   0.01267  Uiso   1.00
H25    H     0.73190   0.31210   0.91260   0.01267  Uiso   1.00
H26    H     0.08110   0.80310   0.70940   0.01267  Uiso   1.00
H27    H     0.07200   0.88820   0.83360   0.01267  Uiso   1.00
H28    H     0.19620   0.06820   0.91320   0.01267  Uiso   1.00
H29    H     0.34510   0.08950   0.74860   0.01267  Uiso   1.00
H30    H     0.26990   0.70890   0.44480   0.01267  Uiso   1.00
H31    H     0.33750   0.20590   0.07220   0.01267  Uiso   1.00
H32    H     0.23920   0.11060   0.14220   0.01267  Uiso   1.00
H33    H     0.15500   0.36240   0.20540   0.01267  Uiso   1.00
H34    H     0.26180   0.45280   0.14000   0.01267  Uiso   1.00
H35    H     0.05400   0.18120   0.22260   0.01267  Uiso   1.00
H36    H     0.27280   0.23620   0.33260   0.01267  Uiso   1.00
H37    H     0.02250   0.24850   0.35860   0.01267  Uiso   1.00
H38    H     0.02110   0.39930   0.44040   0.01267  Uiso   1.00
H39    H     0.34010   0.58050   0.48940   0.01267  Uiso   1.00
H40    H     0.35050   0.43070   0.41260   0.01267  Uiso   1.00
H41    H     0.65630   0.87830   0.20940   0.01267  Uiso   1.00
H42    H     0.69540   0.01160   0.33360   0.01267  Uiso   1.00
H43    H     0.59500   0.96700   0.41320   0.01267  Uiso   1.00
H44    H     0.40910   0.65350   0.24860   0.01267  Uiso   1.00
H45    H     0.48590   0.42490   0.94480   0.01267  Uiso   1.00
H46    H     0.73470   0.86630   0.07220   0.01267  Uiso   1.00
H47    H     0.90300   0.03160   0.14220   0.01267  Uiso   1.00
H48    H     0.05040   0.84300   0.20540   0.01267  Uiso   1.00
H49    H     0.87820   0.68720   0.14000   0.01267  Uiso   1.00
H50    H     0.16860   0.04140   0.22260   0.01267  Uiso   1.00
H51    H     0.05980   0.09640   0.33260   0.01267  Uiso   1.00
H52    H     0.33610   0.11010   0.35860   0.01267  Uiso   1.00
H53    H     0.41930   0.04110   0.44040   0.01267  Uiso   1.00
H54    H     0.14930   0.90890   0.48940   0.01267  Uiso   1.00
H55    H     0.06210   0.98190   0.41260   0.01267  Uiso   1.00
H56    H     0.55310   0.33110   0.20940   0.01267  Uiso   1.00
H57    H     0.63820   0.32200   0.33360   0.01267  Uiso   1.00
H58    H     0.81820   0.44620   0.41320   0.01267  Uiso   1.00
H59    H     0.83950   0.59510   0.24860   0.01267  Uiso   1.00
H60    H     0.45890   0.51990   0.94480   0.01267  Uiso   1.00
C1     C     0.98840   0.55160   0.60060   0.01267  Uiso   1.00
C2     C     0.92970   0.49150   0.64180   0.01267  Uiso   1.00
C3     C     0.97812   0.43492   0.68224   0.01267  Uiso   1.00
C4     C     0.07871   0.44271   0.67982   0.01267  Uiso   1.00
C5     C     0.13236   0.50616   0.63952   0.01267  Uiso   1.00
C6     C     0.92500   0.37520   0.73120   0.01267  Uiso   1.00
C7     C     0.97030   0.44370   0.82380   0.01267  Uiso   1.00
C8     C     0.07015   0.43895   0.87710   0.01267  Uiso   1.00
C9     C     0.06540   0.33920   0.88600   0.01267  Uiso   1.00
C10    C     0.15611   0.33851   0.93342   0.01267  Uiso   1.00
C11    C     0.26204   0.52524   0.96288   0.01267  Uiso   1.00
C12    C     0.17270   0.53150   0.91720   0.01267  Uiso   1.00
C13    C     0.50190   0.78030   0.71900   0.01267  Uiso   1.00
C14    C     0.60960   0.86500   0.74240   0.01267  Uiso   1.00
C15    C     0.68900   0.88700   0.81600   0.01267  Uiso   1.00
C16    C     0.66300   0.82580   0.86260   0.01267  Uiso   1.00
C17    C     0.55880   0.73520   0.83780   0.01267  Uiso   1.00
C18    C     0.47644   0.71624   0.76528   0.01267  Uiso   1.00
C19    C     0.41176   0.76156   0.64112   0.01267  Uiso   1.00
C20    C     0.53494   0.66894   0.88988   0.01267  Uiso   1.00
C21    C     0.61220   0.04900   0.60060   0.01267  Uiso   1.00
C22    C     0.71210   0.15030   0.64180   0.01267  Uiso   1.00
C23    C     0.70412   0.24732   0.68224   0.01267  Uiso   1.00
C24    C     0.60111   0.23711   0.67982   0.01267  Uiso   1.00
C25    C     0.50716   0.13336   0.63952   0.01267  Uiso   1.00
C26    C     0.80620   0.35600   0.73120   0.01267  Uiso   1.00
C27    C     0.85350   0.38010   0.82380   0.01267  Uiso   1.00
C28    C     0.80695   0.43815   0.87710   0.01267  Uiso   1.00
C29    C     0.82060   0.54680   0.88600   0.01267  Uiso   1.00
C30    C     0.77731   0.59491   0.93342   0.01267  Uiso   1.00
C31    C     0.70084   0.43764   0.96288   0.01267  Uiso   1.00
C32    C     0.74450   0.38570   0.91720   0.01267  Uiso   1.00
C33    C     0.21710   0.93870   0.71900   0.01267  Uiso   1.00
C34    C     0.13280   0.87740   0.74240   0.01267  Uiso   1.00
C35    C     0.12700   0.92900   0.81600   0.01267  Uiso   1.00
C36    C     0.19960   0.03680   0.86260   0.01267  Uiso   1.00
C37    C     0.27900   0.10260   0.83780   0.01267  Uiso   1.00
C38    C     0.28884   0.04904   0.76528   0.01267  Uiso   1.00
C39    C     0.22936   0.87956   0.64112   0.01267  Uiso   1.00
C40    C     0.35494   0.22094   0.88988   0.01267  Uiso   1.00
C41    C     0.30160   0.23840   0.10060   0.01267  Uiso   1.00
C42    C     0.24150   0.17970   0.14180   0.01267  Uiso   1.00
C43    C     0.18492   0.22812   0.18224   0.01267  Uiso   1.00
C44    C     0.19271   0.32871   0.17982   0.01267  Uiso   1.00
C45    C     0.25616   0.38236   0.13952   0.01267  Uiso   1.00
C46    C     0.12520   0.17500   0.23120   0.01267  Uiso   1.00
C47    C     0.19370   0.22030   0.32380   0.01267  Uiso   1.00
C48    C     0.18895   0.32015   0.37710   0.01267  Uiso   1.00
C49    C     0.08920   0.31540   0.38600   0.01267  Uiso   1.00
C50    C     0.08851   0.40611   0.43342   0.01267  Uiso   1.00
C51    C     0.27524   0.51204   0.46288   0.01267  Uiso   1.00
C52    C     0.28150   0.42270   0.41720   0.01267  Uiso   1.00
C53    C     0.53030   0.75190   0.21900   0.01267  Uiso   1.00
C54    C     0.61500   0.85960   0.24240   0.01267  Uiso   1.00
C55    C     0.63700   0.93900   0.31600   0.01267  Uiso   1.00
C56    C     0.57580   0.91300   0.36260   0.01267  Uiso   1.00
C57    C     0.48520   0.80880   0.33780   0.01267  Uiso   1.00
C58    C     0.46624   0.72644   0.26528   0.01267  Uiso   1.00
C59    C     0.51156   0.66176   0.14112   0.01267  Uiso   1.00
C60    C     0.41894   0.78494   0.38988   0.01267  Uiso   1.00
C61    C     0.79900   0.86220   0.10060   0.01267  Uiso   1.00
C62    C     0.90030   0.96210   0.14180   0.01267  Uiso   1.00
C63    C     0.99732   0.95412   0.18224   0.01267  Uiso   1.00
C64    C     0.98711   0.85111   0.17982   0.01267  Uiso   1.00
C65    C     0.88336   0.75716   0.13952   0.01267  Uiso   1.00
C66    C     0.10600   0.05620   0.23120   0.01267  Uiso   1.00
C67    C     0.13010   0.10350   0.32380   0.01267  Uiso   1.00
C68    C     0.18815   0.05695   0.37710   0.01267  Uiso   1.00
C69    C     0.29680   0.07060   0.38600   0.01267  Uiso   1.00
C70    C     0.34491   0.02731   0.43342   0.01267  Uiso   1.00
C71    C     0.18764   0.95084   0.46288   0.01267  Uiso   1.00
C72    C     0.13570   0.99450   0.41720   0.01267  Uiso   1.00
C73    C     0.68870   0.46710   0.21900   0.01267  Uiso   1.00
C74    C     0.62740   0.38280   0.24240   0.01267  Uiso   1.00
C75    C     0.67900   0.37700   0.31600   0.01267  Uiso   1.00
C76    C     0.78680   0.44960   0.36260   0.01267  Uiso   1.00
C77    C     0.85260   0.52900   0.33780   0.01267  Uiso   1.00
C78    C     0.79904   0.53884   0.26528   0.01267  Uiso   1.00
C79    C     0.62956   0.47936   0.14112   0.01267  Uiso   1.00
C80    C     0.97094   0.60494   0.38988   0.01267  Uiso   1.00
N1     N     0.08744   0.55924   0.60048   0.01267  Uiso   1.00
N2     N     0.25583   0.42843   0.97146   0.01267  Uiso   1.00
N3     N     0.51304   0.04124   0.60048   0.01267  Uiso   1.00
N4     N     0.71563   0.54303   0.97146   0.01267  Uiso   1.00
N5     N     0.30924   0.33744   0.10048   0.01267  Uiso   1.00
N6     N     0.17843   0.50583   0.47146   0.01267  Uiso   1.00
N7     N     0.79124   0.76304   0.10048   0.01267  Uiso   1.00
N8     N     0.29303   0.96563   0.47146   0.01267  Uiso   1.00
O1     O     0.31387   0.69597   0.62704   0.01267  Uiso   1.00
O2     O     0.44565   0.81277   0.59642   0.01267  Uiso   1.00
O3     O     0.44139   0.58739   0.86858   0.01267  Uiso   1.00
O4     O     0.61717   0.69399   0.95216   0.01267  Uiso   1.00
O5     O     0.31317   0.93107   0.62704   0.01267  Uiso   1.00
O6     O     0.15077   0.78365   0.59642   0.01267  Uiso   1.00
O7     O     0.42719   0.28119   0.86858   0.01267  Uiso   1.00
O8     O     0.33499   0.25817   0.95216   0.01267  Uiso   1.00
O9     O     0.44597   0.56387   0.12704   0.01267  Uiso   1.00
O10    O     0.56277   0.69565   0.09642   0.01267  Uiso   1.00
O11    O     0.33739   0.69139   0.36858   0.01267  Uiso   1.00
O12    O     0.44399   0.86717   0.45216   0.01267  Uiso   1.00
O13    O     0.68107   0.56317   0.12704   0.01267  Uiso   1.00
O14    O     0.53365   0.40077   0.09642   0.01267  Uiso   1.00
O15    O     0.03119   0.67719   0.36858   0.01267  Uiso   1.00
O16    O     0.00817   0.58499   0.45216   0.01267  Uiso   1.00
O17    O     0.23213   0.73213   0.46426   0.01267  Uiso   1.00
O18    O     0.48213   0.48213   0.96426   0.01267  Uiso   1.00
