data_KANDEK_clean
_audit_creation_date              2014-07-02
_audit_creation_method            'Materials Studio'
_symmetry_space_group_name_H-M    'P1'
_symmetry_Int_Tables_number       1
_symmetry_cell_setting            triclinic
loop_
_symmetry_equiv_pos_as_xyz
  x,y,z
_cell_length_a                    10.8650
_cell_length_b                    10.9600
_cell_length_c                    15.2720
_cell_angle_alpha                 79.2800
_cell_angle_beta                  83.7500
_cell_angle_gamma                 84.5000
loop_
_atom_site_label
_atom_site_type_symbol
_atom_site_fract_x
_atom_site_fract_y
_atom_site_fract_z
_atom_site_U_iso_or_equiv
_atom_site_adp_type
_atom_site_occupancy
Zn1    Zn    0.95372   0.84171   0.69636   0.01267  Uiso   1.00
Zn2    Zn    0.94538   0.78765   0.89703   0.01267  Uiso   1.00
H1     H     0.87350   0.39390   0.92470   0.01267  Uiso   1.00
H2     H     0.87280   0.18050   0.92350   0.01267  Uiso   1.00
H3     H     0.02330   0.23960   0.66580   0.01267  Uiso   1.00
H4     H     0.02530   0.44910   0.67040   0.01267  Uiso   1.00
H5     H     0.56690   0.79200   0.91910   0.01267  Uiso   1.00
H6     H     0.35340   0.77020   0.94420   0.01267  Uiso   1.00
H7     H     0.33330   0.82110   0.67590   0.01267  Uiso   1.00
H8     H     0.54430   0.84390   0.65130   0.01267  Uiso   1.00
H9     H     0.79070   0.61040   0.02780   0.01267  Uiso   1.00
H10    H     0.64400   0.61190   0.14850   0.01267  Uiso   1.00
H11    H     0.72970   0.95930   0.15740   0.01267  Uiso   1.00
H12    H     0.87330   0.94670   0.03700   0.01267  Uiso   1.00
H13    H     0.43180   0.73090   0.17960   0.01267  Uiso   1.00
H14    H     0.26900   0.75120   0.28920   0.01267  Uiso   1.00
H15    H     0.17940   0.68330   0.43230   0.01267  Uiso   1.00
H16    H     0.02060   0.69710   0.54440   0.01267  Uiso   1.00
H17    H     0.12540   0.01230   0.58170   0.01267  Uiso   1.00
H18    H     0.29460   0.00260   0.47570   0.01267  Uiso   1.00
C1     C     0.94710   0.44320   0.79770   0.01267  Uiso   1.00
C2     C     0.90330   0.36280   0.87310   0.01267  Uiso   1.00
C3     C     0.90330   0.23380   0.87270   0.01267  Uiso   1.00
C4     C     0.94950   0.18670   0.79520   0.01267  Uiso   1.00
C5     C     0.99410   0.26950   0.71790   0.01267  Uiso   1.00
C6     C     0.99390   0.39540   0.72070   0.01267  Uiso   1.00
C7     C     0.94790   0.57960   0.79900   0.01267  Uiso   1.00
C8     C     0.95130   0.05250   0.79160   0.01267  Uiso   1.00
C9     C     0.57880   0.81950   0.78090   0.01267  Uiso   1.00
C10    C     0.51980   0.79780   0.87090   0.01267  Uiso   1.00
C11    C     0.39170   0.78550   0.88620   0.01267  Uiso   1.00
C12    C     0.32110   0.79670   0.81130   0.01267  Uiso   1.00
C13    C     0.37970   0.81640   0.72430   0.01267  Uiso   1.00
C14    C     0.50690   0.82900   0.70960   0.01267  Uiso   1.00
C15    C     0.71710   0.83250   0.76770   0.01267  Uiso   1.00
C16    C     0.18310   0.79150   0.82660   0.01267  Uiso   1.00
C17    C     0.77730   0.68110   0.05410   0.01267  Uiso   1.00
C18    C     0.68840   0.68130   0.12650   0.01267  Uiso   1.00
C19    C     0.66700   0.78720   0.16570   0.01267  Uiso   1.00
C20    C     0.73970   0.88800   0.13170   0.01267  Uiso   1.00
C21    C     0.82610   0.87940   0.05940   0.01267  Uiso   1.00
C22    C     0.56500   0.79680   0.23850   0.01267  Uiso   1.00
C23    C     0.44540   0.76260   0.22980   0.01267  Uiso   1.00
C24    C     0.34650   0.77590   0.29600   0.01267  Uiso   1.00
C25    C     0.36290   0.82640   0.37320   0.01267  Uiso   1.00
C26    C     0.48420   0.85810   0.38090   0.01267  Uiso   1.00
C27    C     0.58000   0.84320   0.31590   0.01267  Uiso   1.00
C28    C     0.25950   0.83930   0.44310   0.01267  Uiso   1.00
C29    C     0.17270   0.74930   0.46340   0.01267  Uiso   1.00
C30    C     0.07620   0.75880   0.53060   0.01267  Uiso   1.00
C31    C     0.13860   0.94340   0.55340   0.01267  Uiso   1.00
C32    C     0.24070   0.93930   0.48820   0.01267  Uiso   1.00
N1     N     0.84530   0.77910   0.01980   0.01267  Uiso   1.00
N2     N     0.06050   0.85490   0.57640   0.01267  Uiso   1.00
O1     O     0.95280   0.65180   0.72330   0.01267  Uiso   1.00
O2     O     0.94510   0.61160   0.87520   0.01267  Uiso   1.00
O3     O     0.95220   0.97790   0.86820   0.01267  Uiso   1.00
O4     O     0.95350   0.01980   0.71650   0.01267  Uiso   1.00
O5     O     0.76710   0.85460   0.68690   0.01267  Uiso   1.00
O6     O     0.77490   0.82140   0.83590   0.01267  Uiso   1.00
O7     O     0.13220   0.77190   0.90820   0.01267  Uiso   1.00
O8     O     0.12510   0.80820   0.75980   0.01267  Uiso   1.00
F1     F     0.50730   0.89920   0.45480   0.01267  Uiso   1.00
F2     F     0.69450   0.87550   0.32900   0.01267  Uiso   1.00
Zn3    Zn    0.04628   0.15829   0.30364   0.01267  Uiso   1.00
Zn4    Zn    0.05462   0.21235   0.10297   0.01267  Uiso   1.00
H19    H     0.12650   0.60610   0.07530   0.01267  Uiso   1.00
H20    H     0.12720   0.81950   0.07650   0.01267  Uiso   1.00
H21    H     0.97670   0.76040   0.33420   0.01267  Uiso   1.00
H22    H     0.97470   0.55090   0.32960   0.01267  Uiso   1.00
H23    H     0.43310   0.20800   0.08090   0.01267  Uiso   1.00
H24    H     0.64660   0.22980   0.05580   0.01267  Uiso   1.00
H25    H     0.66670   0.17890   0.32410   0.01267  Uiso   1.00
H26    H     0.45570   0.15610   0.34870   0.01267  Uiso   1.00
H27    H     0.20930   0.38960   0.97220   0.01267  Uiso   1.00
H28    H     0.35600   0.38810   0.85150   0.01267  Uiso   1.00
H29    H     0.27030   0.04070   0.84260   0.01267  Uiso   1.00
H30    H     0.12670   0.05330   0.96300   0.01267  Uiso   1.00
H31    H     0.56820   0.26910   0.82040   0.01267  Uiso   1.00
H32    H     0.73100   0.24880   0.71080   0.01267  Uiso   1.00
H33    H     0.82060   0.31670   0.56770   0.01267  Uiso   1.00
H34    H     0.97940   0.30290   0.45560   0.01267  Uiso   1.00
H35    H     0.87460   0.98770   0.41830   0.01267  Uiso   1.00
H36    H     0.70540   0.99740   0.52430   0.01267  Uiso   1.00
C33    C     0.05290   0.55680   0.20230   0.01267  Uiso   1.00
C34    C     0.09670   0.63720   0.12690   0.01267  Uiso   1.00
C35    C     0.09670   0.76620   0.12730   0.01267  Uiso   1.00
C36    C     0.05050   0.81330   0.20480   0.01267  Uiso   1.00
C37    C     0.00590   0.73050   0.28210   0.01267  Uiso   1.00
C38    C     0.00610   0.60460   0.27930   0.01267  Uiso   1.00
C39    C     0.05210   0.42040   0.20100   0.01267  Uiso   1.00
C40    C     0.04870   0.94750   0.20840   0.01267  Uiso   1.00
C41    C     0.42120   0.18050   0.21910   0.01267  Uiso   1.00
C42    C     0.48020   0.20220   0.12910   0.01267  Uiso   1.00
C43    C     0.60830   0.21450   0.11380   0.01267  Uiso   1.00
C44    C     0.67890   0.20330   0.18870   0.01267  Uiso   1.00
C45    C     0.62030   0.18360   0.27570   0.01267  Uiso   1.00
C46    C     0.49310   0.17100   0.29040   0.01267  Uiso   1.00
C47    C     0.28290   0.16750   0.23230   0.01267  Uiso   1.00
C48    C     0.81690   0.20850   0.17340   0.01267  Uiso   1.00
C49    C     0.22270   0.31890   0.94590   0.01267  Uiso   1.00
C50    C     0.31160   0.31870   0.87350   0.01267  Uiso   1.00
C51    C     0.33300   0.21280   0.83430   0.01267  Uiso   1.00
C52    C     0.26030   0.11200   0.86830   0.01267  Uiso   1.00
C53    C     0.17390   0.12060   0.94060   0.01267  Uiso   1.00
C54    C     0.43500   0.20320   0.76150   0.01267  Uiso   1.00
C55    C     0.55460   0.23740   0.77020   0.01267  Uiso   1.00
C56    C     0.65350   0.22410   0.70400   0.01267  Uiso   1.00
C57    C     0.63710   0.17360   0.62680   0.01267  Uiso   1.00
C58    C     0.51580   0.14190   0.61910   0.01267  Uiso   1.00
C59    C     0.42000   0.15680   0.68410   0.01267  Uiso   1.00
C60    C     0.74050   0.16070   0.55690   0.01267  Uiso   1.00
C61    C     0.82730   0.25070   0.53660   0.01267  Uiso   1.00
C62    C     0.92380   0.24120   0.46940   0.01267  Uiso   1.00
C63    C     0.86140   0.05660   0.44660   0.01267  Uiso   1.00
C64    C     0.75930   0.06070   0.51180   0.01267  Uiso   1.00
N3     N     0.15470   0.22090   0.98020   0.01267  Uiso   1.00
N4     N     0.93950   0.14510   0.42360   0.01267  Uiso   1.00
O9     O     0.04720   0.34820   0.27670   0.01267  Uiso   1.00
O10    O     0.05490   0.38840   0.12480   0.01267  Uiso   1.00
O11    O     0.04780   0.02210   0.13180   0.01267  Uiso   1.00
O12    O     0.04650   0.98020   0.28350   0.01267  Uiso   1.00
O13    O     0.23290   0.14540   0.31310   0.01267  Uiso   1.00
O14    O     0.22510   0.17860   0.16410   0.01267  Uiso   1.00
O15    O     0.86780   0.22810   0.09180   0.01267  Uiso   1.00
O16    O     0.87490   0.19180   0.24020   0.01267  Uiso   1.00
F3     F     0.49270   0.10080   0.54520   0.01267  Uiso   1.00
F4     F     0.30550   0.12450   0.67100   0.01267  Uiso   1.00
