data_KAVRIK_clean
_audit_creation_date              2014-07-02
_audit_creation_method            'Materials Studio'
_symmetry_space_group_name_H-M    'P1'
_symmetry_Int_Tables_number       1
_symmetry_cell_setting            triclinic
loop_
_symmetry_equiv_pos_as_xyz
  x,y,z
_cell_length_a                    9.8715
_cell_length_b                    18.1613
_cell_length_c                    18.2678
_cell_angle_alpha                 90.0000
_cell_angle_beta                  90.0000
_cell_angle_gamma                 90.0000
loop_
_atom_site_label
_atom_site_type_symbol
_atom_site_fract_x
_atom_site_fract_y
_atom_site_fract_z
_atom_site_U_iso_or_equiv
_atom_site_adp_type
_atom_site_occupancy
Mg1    Mg    0.07905   0.06053   0.68008   0.01267  Uiso   1.00
Mg2    Mg    0.88870   0.96455   0.78313   0.01267  Uiso   1.00
Mg3    Mg    0.42095   0.56053   0.81992   0.01267  Uiso   1.00
Mg4    Mg    0.61130   0.46455   0.71687   0.01267  Uiso   1.00
Mg5    Mg    0.92095   0.43947   0.68008   0.01267  Uiso   1.00
Mg6    Mg    0.11130   0.53545   0.78313   0.01267  Uiso   1.00
Mg7    Mg    0.57905   0.93947   0.81992   0.01267  Uiso   1.00
Mg8    Mg    0.38870   0.03545   0.71687   0.01267  Uiso   1.00
Mg9    Mg    0.92095   0.93947   0.31992   0.01267  Uiso   1.00
Mg10   Mg    0.11130   0.03545   0.21687   0.01267  Uiso   1.00
Mg11   Mg    0.57905   0.43947   0.18008   0.01267  Uiso   1.00
Mg12   Mg    0.38870   0.53545   0.28313   0.01267  Uiso   1.00
Mg13   Mg    0.07905   0.56053   0.31992   0.01267  Uiso   1.00
Mg14   Mg    0.88870   0.46455   0.21687   0.01267  Uiso   1.00
Mg15   Mg    0.42095   0.06053   0.18008   0.01267  Uiso   1.00
Mg16   Mg    0.61130   0.96455   0.28313   0.01267  Uiso   1.00
Mg17   Mg    0.00000   0.25000   0.68777   0.01267  Uiso   1.00
Mg18   Mg    0.50000   0.75000   0.81223   0.01267  Uiso   1.00
Mg19   Mg    0.00000   0.75000   0.31223   0.01267  Uiso   1.00
Mg20   Mg    0.50000   0.25000   0.18777   0.01267  Uiso   1.00
Mg21   Mg    0.00000   0.00000   0.50000   0.01267  Uiso   1.00
Mg22   Mg    0.50000   0.50000   0.00000   0.01267  Uiso   1.00
Mg23   Mg    0.00000   0.50000   0.50000   0.01267  Uiso   1.00
Mg24   Mg    0.50000   0.00000   0.00000   0.01267  Uiso   1.00
H1     H     0.28700   0.23800   0.68740   0.01267  Uiso   1.00
H2     H     0.38400   0.00630   0.55040   0.01267  Uiso   1.00
H3     H     0.23300   0.99510   0.86480   0.01267  Uiso   1.00
H4     H     0.96400   0.85560   0.65370   0.01267  Uiso   1.00
H5     H     0.79200   0.12010   0.82210   0.01267  Uiso   1.00
H6     H     0.84200   0.13170   0.52900   0.01267  Uiso   1.00
H7     H     0.21300   0.73800   0.81260   0.01267  Uiso   1.00
H8     H     0.11600   0.50630   0.94960   0.01267  Uiso   1.00
H9     H     0.26700   0.49510   0.63520   0.01267  Uiso   1.00
H10    H     0.53600   0.35560   0.84630   0.01267  Uiso   1.00
H11    H     0.70800   0.62010   0.67790   0.01267  Uiso   1.00
H12    H     0.65800   0.63170   0.97100   0.01267  Uiso   1.00
H13    H     0.71300   0.26200   0.68740   0.01267  Uiso   1.00
H14    H     0.61600   0.49370   0.55040   0.01267  Uiso   1.00
H15    H     0.76700   0.50490   0.86480   0.01267  Uiso   1.00
H16    H     0.03600   0.64440   0.65370   0.01267  Uiso   1.00
H17    H     0.20800   0.37990   0.82210   0.01267  Uiso   1.00
H18    H     0.15800   0.36830   0.52900   0.01267  Uiso   1.00
H19    H     0.78700   0.76200   0.81260   0.01267  Uiso   1.00
H20    H     0.88400   0.99370   0.94960   0.01267  Uiso   1.00
H21    H     0.73300   0.00490   0.63520   0.01267  Uiso   1.00
H22    H     0.46400   0.14440   0.84630   0.01267  Uiso   1.00
H23    H     0.29200   0.87990   0.67790   0.01267  Uiso   1.00
H24    H     0.34200   0.86830   0.97100   0.01267  Uiso   1.00
H25    H     0.71300   0.76200   0.31260   0.01267  Uiso   1.00
H26    H     0.61600   0.99370   0.44960   0.01267  Uiso   1.00
H27    H     0.76700   0.00490   0.13520   0.01267  Uiso   1.00
H28    H     0.03600   0.14440   0.34630   0.01267  Uiso   1.00
H29    H     0.20800   0.87990   0.17790   0.01267  Uiso   1.00
H30    H     0.15800   0.86830   0.47100   0.01267  Uiso   1.00
H31    H     0.78700   0.26200   0.18740   0.01267  Uiso   1.00
H32    H     0.88400   0.49370   0.05040   0.01267  Uiso   1.00
H33    H     0.73300   0.50490   0.36480   0.01267  Uiso   1.00
H34    H     0.46400   0.64440   0.15370   0.01267  Uiso   1.00
H35    H     0.29200   0.37990   0.32210   0.01267  Uiso   1.00
H36    H     0.34200   0.36830   0.02900   0.01267  Uiso   1.00
H37    H     0.28700   0.73800   0.31260   0.01267  Uiso   1.00
H38    H     0.38400   0.50630   0.44960   0.01267  Uiso   1.00
H39    H     0.23300   0.49510   0.13520   0.01267  Uiso   1.00
H40    H     0.96400   0.35560   0.34630   0.01267  Uiso   1.00
H41    H     0.79200   0.62010   0.17790   0.01267  Uiso   1.00
H42    H     0.84200   0.63170   0.47100   0.01267  Uiso   1.00
H43    H     0.21300   0.23800   0.18740   0.01267  Uiso   1.00
H44    H     0.11600   0.00630   0.05040   0.01267  Uiso   1.00
H45    H     0.26700   0.99510   0.36480   0.01267  Uiso   1.00
H46    H     0.53600   0.85560   0.15370   0.01267  Uiso   1.00
H47    H     0.70800   0.12010   0.32210   0.01267  Uiso   1.00
H48    H     0.65800   0.13170   0.02900   0.01267  Uiso   1.00
C1     C     0.27630   0.18731   0.69386   0.01267  Uiso   1.00
C2     C     0.28650   0.01253   0.56191   0.01267  Uiso   1.00
C3     C     0.16910   0.00021   0.82962   0.01267  Uiso   1.00
C4     C     0.98310   0.90488   0.63839   0.01267  Uiso   1.00
C5     C     0.86620   0.13216   0.78158   0.01267  Uiso   1.00
C6     C     0.90010   0.13569   0.57298   0.01267  Uiso   1.00
C7     C     0.22370   0.68731   0.80614   0.01267  Uiso   1.00
C8     C     0.21350   0.51253   0.93809   0.01267  Uiso   1.00
C9     C     0.33090   0.50021   0.67038   0.01267  Uiso   1.00
C10    C     0.51690   0.40488   0.86161   0.01267  Uiso   1.00
C11    C     0.63380   0.63216   0.71842   0.01267  Uiso   1.00
C12    C     0.59990   0.63569   0.92702   0.01267  Uiso   1.00
C13    C     0.72370   0.31269   0.69386   0.01267  Uiso   1.00
C14    C     0.71350   0.48747   0.56191   0.01267  Uiso   1.00
C15    C     0.83090   0.49979   0.82962   0.01267  Uiso   1.00
C16    C     0.01690   0.59512   0.63839   0.01267  Uiso   1.00
C17    C     0.13380   0.36784   0.78158   0.01267  Uiso   1.00
C18    C     0.09990   0.36431   0.57298   0.01267  Uiso   1.00
C19    C     0.77630   0.81269   0.80614   0.01267  Uiso   1.00
C20    C     0.78650   0.98747   0.93809   0.01267  Uiso   1.00
C21    C     0.66910   0.99979   0.67038   0.01267  Uiso   1.00
C22    C     0.48310   0.09512   0.86161   0.01267  Uiso   1.00
C23    C     0.36620   0.86784   0.71842   0.01267  Uiso   1.00
C24    C     0.40010   0.86431   0.92702   0.01267  Uiso   1.00
C25    C     0.72370   0.81269   0.30614   0.01267  Uiso   1.00
C26    C     0.71350   0.98747   0.43809   0.01267  Uiso   1.00
C27    C     0.83090   0.99979   0.17038   0.01267  Uiso   1.00
C28    C     0.01690   0.09512   0.36161   0.01267  Uiso   1.00
C29    C     0.13380   0.86784   0.21842   0.01267  Uiso   1.00
C30    C     0.09990   0.86431   0.42702   0.01267  Uiso   1.00
C31    C     0.77630   0.31269   0.19386   0.01267  Uiso   1.00
C32    C     0.78650   0.48747   0.06191   0.01267  Uiso   1.00
C33    C     0.66910   0.49979   0.32962   0.01267  Uiso   1.00
C34    C     0.48310   0.59512   0.13839   0.01267  Uiso   1.00
C35    C     0.36620   0.36784   0.28158   0.01267  Uiso   1.00
C36    C     0.40010   0.36431   0.07298   0.01267  Uiso   1.00
C37    C     0.27630   0.68731   0.30614   0.01267  Uiso   1.00
C38    C     0.28650   0.51253   0.43809   0.01267  Uiso   1.00
C39    C     0.16910   0.50021   0.17038   0.01267  Uiso   1.00
C40    C     0.98310   0.40488   0.36161   0.01267  Uiso   1.00
C41    C     0.86620   0.63216   0.21842   0.01267  Uiso   1.00
C42    C     0.90010   0.63569   0.42702   0.01267  Uiso   1.00
C43    C     0.22370   0.18731   0.19386   0.01267  Uiso   1.00
C44    C     0.21350   0.01253   0.06191   0.01267  Uiso   1.00
C45    C     0.33090   0.00021   0.32962   0.01267  Uiso   1.00
C46    C     0.51690   0.90488   0.13839   0.01267  Uiso   1.00
C47    C     0.63380   0.13216   0.28158   0.01267  Uiso   1.00
C48    C     0.59990   0.13569   0.07298   0.01267  Uiso   1.00
O1     O     0.15281   0.16782   0.68697   0.01267  Uiso   1.00
O2     O     0.37350   0.14608   0.70531   0.01267  Uiso   1.00
O3     O     0.25585   0.02240   0.62900   0.01267  Uiso   1.00
O4     O     0.20630   0.00802   0.51031   0.01267  Uiso   1.00
O5     O     0.20014   0.03133   0.76977   0.01267  Uiso   1.00
O6     O     0.05750   0.97392   0.84611   0.01267  Uiso   1.00
O7     O     0.99700   0.91320   0.57185   0.01267  Uiso   1.00
O8     O     0.99460   0.95494   0.68654   0.01267  Uiso   1.00
O9     O     0.91834   0.07548   0.75260   0.01267  Uiso   1.00
O10    O     0.89260   0.19687   0.76755   0.01267  Uiso   1.00
O11    O     0.97390   0.07917   0.58429   0.01267  Uiso   1.00
O12    O     0.89630   0.19186   0.61030   0.01267  Uiso   1.00
O13    O     0.34719   0.66782   0.81303   0.01267  Uiso   1.00
O14    O     0.12650   0.64608   0.79469   0.01267  Uiso   1.00
O15    O     0.24415   0.52240   0.87100   0.01267  Uiso   1.00
O16    O     0.29370   0.50802   0.98969   0.01267  Uiso   1.00
O17    O     0.29986   0.53133   0.73023   0.01267  Uiso   1.00
O18    O     0.44250   0.47392   0.65389   0.01267  Uiso   1.00
O19    O     0.50300   0.41320   0.92815   0.01267  Uiso   1.00
O20    O     0.50540   0.45494   0.81346   0.01267  Uiso   1.00
O21    O     0.58166   0.57548   0.74740   0.01267  Uiso   1.00
O22    O     0.60740   0.69687   0.73245   0.01267  Uiso   1.00
O23    O     0.52610   0.57917   0.91571   0.01267  Uiso   1.00
O24    O     0.60370   0.69186   0.88970   0.01267  Uiso   1.00
O25    O     0.84719   0.33218   0.68697   0.01267  Uiso   1.00
O26    O     0.62650   0.35392   0.70531   0.01267  Uiso   1.00
O27    O     0.74415   0.47760   0.62900   0.01267  Uiso   1.00
O28    O     0.79370   0.49198   0.51031   0.01267  Uiso   1.00
O29    O     0.79986   0.46867   0.76977   0.01267  Uiso   1.00
O30    O     0.94250   0.52608   0.84611   0.01267  Uiso   1.00
O31    O     0.00300   0.58680   0.57185   0.01267  Uiso   1.00
O32    O     0.00540   0.54506   0.68654   0.01267  Uiso   1.00
O33    O     0.08166   0.42452   0.75260   0.01267  Uiso   1.00
O34    O     0.10740   0.30313   0.76755   0.01267  Uiso   1.00
O35    O     0.02610   0.42083   0.58429   0.01267  Uiso   1.00
O36    O     0.10370   0.30814   0.61030   0.01267  Uiso   1.00
O37    O     0.65281   0.83218   0.81303   0.01267  Uiso   1.00
O38    O     0.87350   0.85392   0.79469   0.01267  Uiso   1.00
O39    O     0.75585   0.97760   0.87100   0.01267  Uiso   1.00
O40    O     0.70630   0.99198   0.98969   0.01267  Uiso   1.00
O41    O     0.70014   0.96867   0.73023   0.01267  Uiso   1.00
O42    O     0.55750   0.02608   0.65389   0.01267  Uiso   1.00
O43    O     0.49700   0.08680   0.92815   0.01267  Uiso   1.00
O44    O     0.49460   0.04506   0.81346   0.01267  Uiso   1.00
O45    O     0.41834   0.92452   0.74740   0.01267  Uiso   1.00
O46    O     0.39260   0.80313   0.73245   0.01267  Uiso   1.00
O47    O     0.47390   0.92083   0.91571   0.01267  Uiso   1.00
O48    O     0.39630   0.80814   0.88970   0.01267  Uiso   1.00
O49    O     0.84719   0.83218   0.31303   0.01267  Uiso   1.00
O50    O     0.62650   0.85392   0.29469   0.01267  Uiso   1.00
O51    O     0.74415   0.97760   0.37100   0.01267  Uiso   1.00
O52    O     0.79370   0.99198   0.48969   0.01267  Uiso   1.00
O53    O     0.79986   0.96867   0.23023   0.01267  Uiso   1.00
O54    O     0.94250   0.02608   0.15389   0.01267  Uiso   1.00
O55    O     0.00300   0.08680   0.42815   0.01267  Uiso   1.00
O56    O     0.00540   0.04506   0.31346   0.01267  Uiso   1.00
O57    O     0.08166   0.92452   0.24740   0.01267  Uiso   1.00
O58    O     0.10740   0.80313   0.23245   0.01267  Uiso   1.00
O59    O     0.02610   0.92083   0.41571   0.01267  Uiso   1.00
O60    O     0.10370   0.80814   0.38970   0.01267  Uiso   1.00
O61    O     0.65281   0.33218   0.18697   0.01267  Uiso   1.00
O62    O     0.87350   0.35392   0.20531   0.01267  Uiso   1.00
O63    O     0.75585   0.47760   0.12900   0.01267  Uiso   1.00
O64    O     0.70630   0.49198   0.01031   0.01267  Uiso   1.00
O65    O     0.70014   0.46867   0.26977   0.01267  Uiso   1.00
O66    O     0.55750   0.52608   0.34611   0.01267  Uiso   1.00
O67    O     0.49700   0.58680   0.07185   0.01267  Uiso   1.00
O68    O     0.49460   0.54506   0.18654   0.01267  Uiso   1.00
O69    O     0.41834   0.42452   0.25260   0.01267  Uiso   1.00
O70    O     0.39260   0.30313   0.26755   0.01267  Uiso   1.00
O71    O     0.47390   0.42083   0.08429   0.01267  Uiso   1.00
O72    O     0.39630   0.30814   0.11030   0.01267  Uiso   1.00
O73    O     0.15281   0.66782   0.31303   0.01267  Uiso   1.00
O74    O     0.37350   0.64608   0.29469   0.01267  Uiso   1.00
O75    O     0.25585   0.52240   0.37100   0.01267  Uiso   1.00
O76    O     0.20630   0.50802   0.48969   0.01267  Uiso   1.00
O77    O     0.20014   0.53133   0.23023   0.01267  Uiso   1.00
O78    O     0.05750   0.47392   0.15389   0.01267  Uiso   1.00
O79    O     0.99700   0.41320   0.42815   0.01267  Uiso   1.00
O80    O     0.99460   0.45494   0.31346   0.01267  Uiso   1.00
O81    O     0.91834   0.57548   0.24740   0.01267  Uiso   1.00
O82    O     0.89260   0.69687   0.23245   0.01267  Uiso   1.00
O83    O     0.97390   0.57917   0.41571   0.01267  Uiso   1.00
O84    O     0.89630   0.69186   0.38970   0.01267  Uiso   1.00
O85    O     0.34719   0.16782   0.18697   0.01267  Uiso   1.00
O86    O     0.12650   0.14608   0.20531   0.01267  Uiso   1.00
O87    O     0.24415   0.02240   0.12900   0.01267  Uiso   1.00
O88    O     0.29370   0.00802   0.01031   0.01267  Uiso   1.00
O89    O     0.29986   0.03133   0.26977   0.01267  Uiso   1.00
O90    O     0.44250   0.97392   0.34611   0.01267  Uiso   1.00
O91    O     0.50300   0.91320   0.07185   0.01267  Uiso   1.00
O92    O     0.50540   0.95494   0.18654   0.01267  Uiso   1.00
O93    O     0.58166   0.07548   0.25260   0.01267  Uiso   1.00
O94    O     0.60740   0.19687   0.26755   0.01267  Uiso   1.00
O95    O     0.52610   0.07917   0.08429   0.01267  Uiso   1.00
O96    O     0.60370   0.19186   0.11030   0.01267  Uiso   1.00
