data_KEDPEQ_charged
_audit_creation_date              2014-07-02
_audit_creation_method            'Materials Studio'
_symmetry_space_group_name_H-M    'P1'
_symmetry_Int_Tables_number       1
_symmetry_cell_setting            triclinic
loop_
_symmetry_equiv_pos_as_xyz
  x,y,z
_cell_length_a                    7.5718
_cell_length_b                    10.8468
_cell_length_c                    23.7710
_cell_angle_alpha                 90.0000
_cell_angle_beta                  90.0000
_cell_angle_gamma                 90.0000
loop_
_atom_site_label
_atom_site_type_symbol
_atom_site_fract_x
_atom_site_fract_y
_atom_site_fract_z
_atom_site_U_iso_or_equiv
_atom_site_adp_type
_atom_site_occupancy
Al1    Al    0.50000   0.00000   0.56002   0.01267  Uiso   1.00
Al2    Al    0.50000   0.00000   0.93998   0.01267  Uiso   1.00
Al3    Al    0.50000   0.00000   0.43998   0.01267  Uiso   1.00
Al4    Al    0.50000   0.00000   0.06002   0.01267  Uiso   1.00
Ag1    Ag    0.00000   0.50000   0.75000   0.01267  Uiso   1.00
Ag2    Ag    0.00000   0.50000   0.25000   0.01267  Uiso   1.00
H1     H     0.04340   0.83870   0.62260   0.01267  Uiso   1.00
H2     H     0.99810   0.73010   0.57940   0.01267  Uiso   1.00
H3     H     0.03050   0.86720   0.55670   0.01267  Uiso   1.00
H4     H     0.33220   0.65080   0.64950   0.01267  Uiso   1.00
H5     H     0.46590   0.66850   0.70100   0.01267  Uiso   1.00
H6     H     0.30280   0.76080   0.69330   0.01267  Uiso   1.00
H7     H     0.30560   0.74330   0.46800   0.01267  Uiso   1.00
H8     H     0.95660   0.16130   0.62260   0.01267  Uiso   1.00
H9     H     0.00190   0.26990   0.57940   0.01267  Uiso   1.00
H10    H     0.96950   0.13280   0.55670   0.01267  Uiso   1.00
H11    H     0.66780   0.34920   0.64950   0.01267  Uiso   1.00
H12    H     0.53410   0.33150   0.70100   0.01267  Uiso   1.00
H13    H     0.69720   0.23920   0.69330   0.01267  Uiso   1.00
H14    H     0.69440   0.25670   0.46800   0.01267  Uiso   1.00
H15    H     0.95660   0.83870   0.87740   0.01267  Uiso   1.00
H16    H     0.00190   0.73010   0.92060   0.01267  Uiso   1.00
H17    H     0.96950   0.86720   0.94330   0.01267  Uiso   1.00
H18    H     0.66780   0.65080   0.85050   0.01267  Uiso   1.00
H19    H     0.53410   0.66850   0.79900   0.01267  Uiso   1.00
H20    H     0.69720   0.76080   0.80670   0.01267  Uiso   1.00
H21    H     0.69440   0.74330   0.03200   0.01267  Uiso   1.00
H22    H     0.04340   0.16130   0.87740   0.01267  Uiso   1.00
H23    H     0.99810   0.26990   0.92060   0.01267  Uiso   1.00
H24    H     0.03050   0.13280   0.94330   0.01267  Uiso   1.00
H25    H     0.33220   0.34920   0.85050   0.01267  Uiso   1.00
H26    H     0.46590   0.33150   0.79900   0.01267  Uiso   1.00
H27    H     0.30280   0.23920   0.80670   0.01267  Uiso   1.00
H28    H     0.30560   0.25670   0.03200   0.01267  Uiso   1.00
H29    H     0.95660   0.16130   0.37740   0.01267  Uiso   1.00
H30    H     0.00190   0.26990   0.42060   0.01267  Uiso   1.00
H31    H     0.96950   0.13280   0.44330   0.01267  Uiso   1.00
H32    H     0.66780   0.34920   0.35050   0.01267  Uiso   1.00
H33    H     0.53410   0.33150   0.29900   0.01267  Uiso   1.00
H34    H     0.69720   0.23920   0.30670   0.01267  Uiso   1.00
H35    H     0.69440   0.25670   0.53200   0.01267  Uiso   1.00
H36    H     0.04340   0.83870   0.37740   0.01267  Uiso   1.00
H37    H     0.99810   0.73010   0.42060   0.01267  Uiso   1.00
H38    H     0.03050   0.86720   0.44330   0.01267  Uiso   1.00
H39    H     0.33220   0.65080   0.35050   0.01267  Uiso   1.00
H40    H     0.46590   0.66850   0.29900   0.01267  Uiso   1.00
H41    H     0.30280   0.76080   0.30670   0.01267  Uiso   1.00
H42    H     0.30560   0.74330   0.53200   0.01267  Uiso   1.00
H43    H     0.04340   0.16130   0.12260   0.01267  Uiso   1.00
H44    H     0.99810   0.26990   0.07940   0.01267  Uiso   1.00
H45    H     0.03050   0.13280   0.05670   0.01267  Uiso   1.00
H46    H     0.33220   0.34920   0.14950   0.01267  Uiso   1.00
H47    H     0.46590   0.33150   0.20100   0.01267  Uiso   1.00
H48    H     0.30280   0.23920   0.19330   0.01267  Uiso   1.00
H49    H     0.30560   0.25670   0.96800   0.01267  Uiso   1.00
H50    H     0.95660   0.83870   0.12260   0.01267  Uiso   1.00
H51    H     0.00190   0.73010   0.07940   0.01267  Uiso   1.00
H52    H     0.96950   0.86720   0.05670   0.01267  Uiso   1.00
H53    H     0.66780   0.65080   0.14950   0.01267  Uiso   1.00
H54    H     0.53410   0.66850   0.20100   0.01267  Uiso   1.00
H55    H     0.69720   0.76080   0.19330   0.01267  Uiso   1.00
H56    H     0.69440   0.74330   0.96800   0.01267  Uiso   1.00
H57    H     0.49060   0.71060   0.50000   0.01267  Uiso   1.00
H58    H     0.50940   0.28940   0.50000   0.01267  Uiso   1.00
H59    H     0.50940   0.71060   0.00000   0.01267  Uiso   1.00
H60    H     0.49060   0.28940   0.00000   0.01267  Uiso   1.00
C1     C     0.98190   0.81800   0.58760   0.01267  Uiso   1.00
C2     C     0.79070   0.84500   0.59380   0.01267  Uiso   1.00
C3     C     0.68380   0.77510   0.63090   0.01267  Uiso   1.00
C4     C     0.50480   0.79460   0.63780   0.01267  Uiso   1.00
C5     C     0.39150   0.71140   0.67350   0.01267  Uiso   1.00
C6     C     0.76270   0.68000   0.66300   0.01267  Uiso   1.00
C7     C     0.01810   0.18200   0.58760   0.01267  Uiso   1.00
C8     C     0.20930   0.15500   0.59380   0.01267  Uiso   1.00
C9     C     0.31620   0.22490   0.63090   0.01267  Uiso   1.00
C10    C     0.49520   0.20540   0.63780   0.01267  Uiso   1.00
C11    C     0.60850   0.28860   0.67350   0.01267  Uiso   1.00
C12    C     0.23730   0.32000   0.66300   0.01267  Uiso   1.00
C13    C     0.01810   0.81800   0.91240   0.01267  Uiso   1.00
C14    C     0.20930   0.84500   0.90620   0.01267  Uiso   1.00
C15    C     0.31620   0.77510   0.86910   0.01267  Uiso   1.00
C16    C     0.49520   0.79460   0.86220   0.01267  Uiso   1.00
C17    C     0.60850   0.71140   0.82650   0.01267  Uiso   1.00
C18    C     0.23730   0.68000   0.83700   0.01267  Uiso   1.00
C19    C     0.98190   0.18200   0.91240   0.01267  Uiso   1.00
C20    C     0.79070   0.15500   0.90620   0.01267  Uiso   1.00
C21    C     0.68380   0.22490   0.86910   0.01267  Uiso   1.00
C22    C     0.50480   0.20540   0.86220   0.01267  Uiso   1.00
C23    C     0.39150   0.28860   0.82650   0.01267  Uiso   1.00
C24    C     0.76270   0.32000   0.83700   0.01267  Uiso   1.00
C25    C     0.01810   0.18200   0.41240   0.01267  Uiso   1.00
C26    C     0.20930   0.15500   0.40620   0.01267  Uiso   1.00
C27    C     0.31620   0.22490   0.36910   0.01267  Uiso   1.00
C28    C     0.49520   0.20540   0.36220   0.01267  Uiso   1.00
C29    C     0.60850   0.28860   0.32650   0.01267  Uiso   1.00
C30    C     0.23730   0.32000   0.33700   0.01267  Uiso   1.00
C31    C     0.98190   0.81800   0.41240   0.01267  Uiso   1.00
C32    C     0.79070   0.84500   0.40620   0.01267  Uiso   1.00
C33    C     0.68380   0.77510   0.36910   0.01267  Uiso   1.00
C34    C     0.50480   0.79460   0.36220   0.01267  Uiso   1.00
C35    C     0.39150   0.71140   0.32650   0.01267  Uiso   1.00
C36    C     0.76270   0.68000   0.33700   0.01267  Uiso   1.00
C37    C     0.98190   0.18200   0.08760   0.01267  Uiso   1.00
C38    C     0.79070   0.15500   0.09380   0.01267  Uiso   1.00
C39    C     0.68380   0.22490   0.13090   0.01267  Uiso   1.00
C40    C     0.50480   0.20540   0.13780   0.01267  Uiso   1.00
C41    C     0.39150   0.28860   0.17350   0.01267  Uiso   1.00
C42    C     0.76270   0.32000   0.16300   0.01267  Uiso   1.00
C43    C     0.01810   0.81800   0.08760   0.01267  Uiso   1.00
C44    C     0.20930   0.84500   0.09380   0.01267  Uiso   1.00
C45    C     0.31620   0.77510   0.13090   0.01267  Uiso   1.00
C46    C     0.49520   0.79460   0.13780   0.01267  Uiso   1.00
C47    C     0.60850   0.71140   0.17350   0.01267  Uiso   1.00
C48    C     0.23730   0.68000   0.16300   0.01267  Uiso   1.00
C49    C     0.38300   0.76100   0.50000   0.01267  Uiso   1.00
C50    C     0.61700   0.23900   0.50000   0.01267  Uiso   1.00
C51    C     0.61700   0.76100   0.00000   0.01267  Uiso   1.00
C52    C     0.38300   0.23900   0.00000   0.01267  Uiso   1.00
N1     N     0.83050   0.60660   0.69020   0.01267  Uiso   1.00
N2     N     0.16950   0.39340   0.69020   0.01267  Uiso   1.00
N3     N     0.16950   0.60660   0.80980   0.01267  Uiso   1.00
N4     N     0.83050   0.39340   0.80980   0.01267  Uiso   1.00
N5     N     0.16950   0.39340   0.30980   0.01267  Uiso   1.00
N6     N     0.83050   0.60660   0.30980   0.01267  Uiso   1.00
N7     N     0.83050   0.39340   0.19020   0.01267  Uiso   1.00
N8     N     0.16950   0.60660   0.19020   0.01267  Uiso   1.00
O1     O     0.73070   0.93250   0.56578   0.01267  Uiso   1.00
O2     O     0.42390   0.88430   0.61417   0.01267  Uiso   1.00
O3     O     0.26930   0.06750   0.56578   0.01267  Uiso   1.00
O4     O     0.57610   0.11570   0.61417   0.01267  Uiso   1.00
O5     O     0.26930   0.93250   0.93422   0.01267  Uiso   1.00
O6     O     0.57610   0.88430   0.88583   0.01267  Uiso   1.00
O7     O     0.73070   0.06750   0.93422   0.01267  Uiso   1.00
O8     O     0.42390   0.11570   0.88583   0.01267  Uiso   1.00
O9     O     0.26930   0.06750   0.43422   0.01267  Uiso   1.00
O10    O     0.57610   0.11570   0.38583   0.01267  Uiso   1.00
O11    O     0.73070   0.93250   0.43422   0.01267  Uiso   1.00
O12    O     0.42390   0.88430   0.38583   0.01267  Uiso   1.00
O13    O     0.73070   0.06750   0.06578   0.01267  Uiso   1.00
O14    O     0.42390   0.11570   0.11417   0.01267  Uiso   1.00
O15    O     0.26930   0.93250   0.06578   0.01267  Uiso   1.00
O16    O     0.57610   0.88430   0.11417   0.01267  Uiso   1.00
O17    O     0.43760   0.90210   0.50000   0.01267  Uiso   1.00
O18    O     0.56240   0.09790   0.50000   0.01267  Uiso   1.00
O19    O     0.56240   0.90210   0.00000   0.01267  Uiso   1.00
O20    O     0.43760   0.09790   0.00000   0.01267  Uiso   1.00
