data_KEJQAR01_clean
_audit_creation_date              2014-07-02
_audit_creation_method            'Materials Studio'
_symmetry_space_group_name_H-M    'P1'
_symmetry_Int_Tables_number       1
_symmetry_cell_setting            triclinic
loop_
_symmetry_equiv_pos_as_xyz
  x,y,z
_cell_length_a                    14.5237
_cell_length_b                    14.5237
_cell_length_c                    14.5237
_cell_angle_alpha                 109.4710
_cell_angle_beta                  109.4710
_cell_angle_gamma                 109.4710
loop_
_atom_site_label
_atom_site_type_symbol
_atom_site_fract_x
_atom_site_fract_y
_atom_site_fract_z
_atom_site_U_iso_or_equiv
_atom_site_adp_type
_atom_site_occupancy
Al1    Al    1.00000   0.50000   0.50000   0.01267  Uiso   1.00
Al2    Al    0.50000   0.00000   0.50000   0.01267  Uiso   1.00
Al3    Al    0.50000   0.50000  -0.00000   0.01267  Uiso   1.00
Al4    Al    0.75000   0.25000   0.50000   0.01267  Uiso   1.00
Al5    Al    0.25000   0.75000   0.50000   0.01267  Uiso   1.00
Al6    Al    0.50000   0.25000   0.75000   0.01267  Uiso   1.00
Al7    Al    0.50000   0.75000   0.25000   0.01267  Uiso   1.00
Al8    Al    0.25000   0.50000   0.75000   0.01267  Uiso   1.00
Al9    Al    0.75000   0.50000   0.25000   0.01267  Uiso   1.00
P1     P     0.00000   0.31017   0.55637   0.01267  Uiso   1.00
P2     P     0.75380   0.44363   0.44363   0.01267  Uiso   1.00
P3     P     0.24620   0.68983   0.68983   0.01267  Uiso   1.00
P4     P     1.00000   0.55637   0.31017   0.01267  Uiso   1.00
P5     P     0.68983   0.24620   0.68983   0.01267  Uiso   1.00
P6     P     0.31017   0.00000   0.55637   0.01267  Uiso   1.00
P7     P     0.55637   1.00000   0.31017   0.01267  Uiso   1.00
P8     P     0.44363   0.75380   0.44363   0.01267  Uiso   1.00
P9     P     0.44363   0.44363   0.75380   0.01267  Uiso   1.00
P10    P     0.31017   0.55637   0.00000   0.01267  Uiso   1.00
P11    P     0.55637   0.31017   1.00000   0.01267  Uiso   1.00
P12    P     0.68983   0.68983   0.24620   0.01267  Uiso   1.00
O1     O     0.89708   0.28368   0.57344   0.01267  Uiso   1.00
O2     O     0.71024   0.32364   0.42656   0.01267  Uiso   1.00
O3     O     0.28976   0.71632   0.61340   0.01267  Uiso   1.00
O4     O     0.10292   0.67636   0.38660   0.01267  Uiso   1.00
O5     O     0.61340   0.28976   0.71632   0.01267  Uiso   1.00
O6     O     0.38660   0.10292   0.67636   0.01267  Uiso   1.00
O7     O     0.57344   0.89708   0.28368   0.01267  Uiso   1.00
O8     O     0.42656   0.71024   0.32364   0.01267  Uiso   1.00
O9     O     0.32364   0.42656   0.71024   0.01267  Uiso   1.00
O10    O     0.28368   0.57344   0.89708   0.01267  Uiso   1.00
O11    O     0.67636   0.38660   0.10292   0.01267  Uiso   1.00
O12    O     0.71632   0.61340   0.28976   0.01267  Uiso   1.00
O13    O     0.32364   0.71024   0.42656   0.01267  Uiso   1.00
O14    O     0.28368   0.89708   0.57344   0.01267  Uiso   1.00
O15    O     0.67636   0.10292   0.38660   0.01267  Uiso   1.00
O16    O     0.71632   0.28976   0.61340   0.01267  Uiso   1.00
O17    O     0.89708   0.57344   0.28368   0.01267  Uiso   1.00
O18    O     0.71024   0.42656   0.32364   0.01267  Uiso   1.00
O19    O     0.28976   0.61340   0.71632   0.01267  Uiso   1.00
O20    O     0.10292   0.38660   0.67636   0.01267  Uiso   1.00
O21    O     0.61340   0.71632   0.28976   0.01267  Uiso   1.00
O22    O     0.38660   0.67636   0.10292   0.01267  Uiso   1.00
O23    O     0.57344   0.28368   0.89708   0.01267  Uiso   1.00
O24    O     0.42656   0.32364   0.71024   0.01267  Uiso   1.00
O25    O     0.00000   0.20500   0.49132   0.01267  Uiso   1.00
O26    O     1.00000   0.37813   0.49429   0.01267  Uiso   1.00
O27    O     0.71368   0.50868   0.50868   0.01267  Uiso   1.00
O28    O     0.88384   0.50571   0.50571   0.01267  Uiso   1.00
O29    O     0.28632   0.79500   0.79500   0.01267  Uiso   1.00
O30    O     0.11616   0.62187   0.62187   0.01267  Uiso   1.00
O31    O     0.00000   0.49132   0.20500   0.01267  Uiso   1.00
O32    O     1.00000   0.49429   0.37813   0.01267  Uiso   1.00
O33    O     0.79500   0.28632   0.79500   0.01267  Uiso   1.00
O34    O     0.62187   0.11616   0.62187   0.01267  Uiso   1.00
O35    O     0.20500   1.00000   0.49132   0.01267  Uiso   1.00
O36    O     0.37813   0.00000   0.49429   0.01267  Uiso   1.00
O37    O     0.49132   0.00000   0.20500   0.01267  Uiso   1.00
O38    O     0.49429   1.00000   0.37813   0.01267  Uiso   1.00
O39    O     0.50868   0.71368   0.50868   0.01267  Uiso   1.00
O40    O     0.50571   0.88384   0.50571   0.01267  Uiso   1.00
O41    O     0.50868   0.50868   0.71368   0.01267  Uiso   1.00
O42    O     0.50571   0.50571   0.88384   0.01267  Uiso   1.00
O43    O     0.20500   0.49132   0.00000   0.01267  Uiso   1.00
O44    O     0.37813   0.49429   0.00000   0.01267  Uiso   1.00
O45    O     0.49132   0.20500  -0.00000   0.01267  Uiso   1.00
O46    O     0.49429   0.37813   0.00000   0.01267  Uiso   1.00
O47    O     0.79500   0.79500   0.28632   0.01267  Uiso   1.00
O48    O     0.62187   0.62187   0.11616   0.01267  Uiso   1.00
