data_KEQZAJ_clean
_audit_creation_date              2014-07-02
_audit_creation_method            'Materials Studio'
_symmetry_space_group_name_H-M    'P1'
_symmetry_Int_Tables_number       1
_symmetry_cell_setting            triclinic
loop_
_symmetry_equiv_pos_as_xyz
  x,y,z
_cell_length_a                    11.0922
_cell_length_b                    11.0922
_cell_length_c                    25.8050
_cell_angle_alpha                 91.8803
_cell_angle_beta                  91.8803
_cell_angle_gamma                 100.1990
loop_
_atom_site_label
_atom_site_type_symbol
_atom_site_fract_x
_atom_site_fract_y
_atom_site_fract_z
_atom_site_U_iso_or_equiv
_atom_site_adp_type
_atom_site_occupancy
Mn1    Mn    0.33071   0.68497   0.49218   0.01267  Uiso   1.00
Mn2    Mn    0.31503   0.66929   0.00782   0.01267  Uiso   1.00
Mn3    Mn    0.66929   0.31503   0.50782   0.01267  Uiso   1.00
Mn4    Mn    0.68497   0.33071   0.99218   0.01267  Uiso   1.00
Mn5    Mn    0.50000   0.00000   0.50000   0.01267  Uiso   1.00
Mn6    Mn    0.00000   0.50000   0.00000   0.01267  Uiso   1.00
H1     H     0.71570   0.90450   0.62830   0.01267  Uiso   1.00
H2     H     0.85120   0.85300   0.69070   0.01267  Uiso   1.00
H3     H     0.71720   0.49700   0.66160   0.01267  Uiso   1.00
H4     H     0.57820   0.54840   0.60130   0.01267  Uiso   1.00
H5     H     0.67840   0.62320   0.76360   0.01267  Uiso   1.00
H6     H     0.63820   0.54780   0.84490   0.01267  Uiso   1.00
H7     H     0.97930   0.47750   0.85940   0.01267  Uiso   1.00
H8     H     0.01880   0.54940   0.77740   0.01267  Uiso   1.00
H9     H     0.11550   0.11790   0.68650   0.01267  Uiso   1.00
H10    H     0.20310   0.09690   0.60730   0.01267  Uiso   1.00
H11    H     0.19890   0.74290   0.63170   0.01267  Uiso   1.00
H12    H     0.11340   0.76320   0.71120   0.01267  Uiso   1.00
H13    H     0.30230   0.22830   0.53980   0.01267  Uiso   1.00
H14    H     0.12070   0.15330   0.49410   0.01267  Uiso   1.00
H15    H     0.02110   0.28650   0.44990   0.01267  Uiso   1.00
H16    H     0.37670   0.43530   0.54190   0.01267  Uiso   1.00
H17    H     0.93540   0.42280   0.41220   0.01267  Uiso   1.00
H18    H     0.86710   0.56990   0.36430   0.01267  Uiso   1.00
H19    H     0.98200   0.76480   0.36460   0.01267  Uiso   1.00
H20    H     0.16280   0.80960   0.41480   0.01267  Uiso   1.00
H21    H     0.09550   0.28430   0.87170   0.01267  Uiso   1.00
H22    H     0.14700   0.14880   0.80930   0.01267  Uiso   1.00
H23    H     0.50300   0.28280   0.83840   0.01267  Uiso   1.00
H24    H     0.45160   0.42180   0.89870   0.01267  Uiso   1.00
H25    H     0.37680   0.32160   0.73640   0.01267  Uiso   1.00
H26    H     0.45220   0.36180   0.65510   0.01267  Uiso   1.00
H27    H     0.52250   0.02070   0.64060   0.01267  Uiso   1.00
H28    H     0.45060   0.98120   0.72260   0.01267  Uiso   1.00
H29    H     0.88210   0.88450   0.81350   0.01267  Uiso   1.00
H30    H     0.90310   0.79690   0.89270   0.01267  Uiso   1.00
H31    H     0.25710   0.80110   0.86830   0.01267  Uiso   1.00
H32    H     0.23680   0.88660   0.78880   0.01267  Uiso   1.00
H33    H     0.77170   0.69770   0.96020   0.01267  Uiso   1.00
H34    H     0.84670   0.87930   0.00590   0.01267  Uiso   1.00
H35    H     0.71350   0.97890   0.05010   0.01267  Uiso   1.00
H36    H     0.56470   0.62330   0.95810   0.01267  Uiso   1.00
H37    H     0.57720   0.06460   0.08780   0.01267  Uiso   1.00
H38    H     0.43010   0.13290   0.13570   0.01267  Uiso   1.00
H39    H     0.23520   0.01800   0.13540   0.01267  Uiso   1.00
H40    H     0.19040   0.83720   0.08520   0.01267  Uiso   1.00
H41    H     0.28430   0.09550   0.37170   0.01267  Uiso   1.00
H42    H     0.14880   0.14700   0.30930   0.01267  Uiso   1.00
H43    H     0.28280   0.50300   0.33840   0.01267  Uiso   1.00
H44    H     0.42180   0.45160   0.39870   0.01267  Uiso   1.00
H45    H     0.32160   0.37680   0.23640   0.01267  Uiso   1.00
H46    H     0.36180   0.45220   0.15510   0.01267  Uiso   1.00
H47    H     0.02070   0.52250   0.14060   0.01267  Uiso   1.00
H48    H     0.98120   0.45060   0.22260   0.01267  Uiso   1.00
H49    H     0.88450   0.88210   0.31350   0.01267  Uiso   1.00
H50    H     0.79690   0.90310   0.39270   0.01267  Uiso   1.00
H51    H     0.80110   0.25710   0.36830   0.01267  Uiso   1.00
H52    H     0.88660   0.23680   0.28880   0.01267  Uiso   1.00
H53    H     0.69770   0.77170   0.46020   0.01267  Uiso   1.00
H54    H     0.87930   0.84670   0.50590   0.01267  Uiso   1.00
H55    H     0.97890   0.71350   0.55010   0.01267  Uiso   1.00
H56    H     0.62330   0.56470   0.45810   0.01267  Uiso   1.00
H57    H     0.06460   0.57720   0.58780   0.01267  Uiso   1.00
H58    H     0.13290   0.43010   0.63570   0.01267  Uiso   1.00
H59    H     0.01800   0.23520   0.63540   0.01267  Uiso   1.00
H60    H     0.83720   0.19040   0.58520   0.01267  Uiso   1.00
H61    H     0.90450   0.71570   0.12830   0.01267  Uiso   1.00
H62    H     0.85300   0.85120   0.19070   0.01267  Uiso   1.00
H63    H     0.49700   0.71720   0.16160   0.01267  Uiso   1.00
H64    H     0.54840   0.57820   0.10130   0.01267  Uiso   1.00
H65    H     0.62320   0.67840   0.26360   0.01267  Uiso   1.00
H66    H     0.54780   0.63820   0.34490   0.01267  Uiso   1.00
H67    H     0.47750   0.97930   0.35940   0.01267  Uiso   1.00
H68    H     0.54940   0.01880   0.27740   0.01267  Uiso   1.00
H69    H     0.11790   0.11550   0.18650   0.01267  Uiso   1.00
H70    H     0.09690   0.20310   0.10730   0.01267  Uiso   1.00
H71    H     0.74290   0.19890   0.13170   0.01267  Uiso   1.00
H72    H     0.76320   0.11340   0.21120   0.01267  Uiso   1.00
H73    H     0.22830   0.30230   0.03980   0.01267  Uiso   1.00
H74    H     0.15330   0.12070   0.99410   0.01267  Uiso   1.00
H75    H     0.28650   0.02110   0.94990   0.01267  Uiso   1.00
H76    H     0.43530   0.37670   0.04190   0.01267  Uiso   1.00
H77    H     0.42280   0.93540   0.91220   0.01267  Uiso   1.00
H78    H     0.56990   0.86710   0.86430   0.01267  Uiso   1.00
H79    H     0.76480   0.98200   0.86460   0.01267  Uiso   1.00
H80    H     0.80960   0.16280   0.91480   0.01267  Uiso   1.00
C1     C     0.54440   0.76208   0.56716   0.01267  Uiso   1.00
C2     C     0.63233   0.73131   0.60829   0.01267  Uiso   1.00
C3     C     0.71509   0.82257   0.63513   0.01267  Uiso   1.00
C4     C     0.79693   0.79183   0.67222   0.01267  Uiso   1.00
C5     C     0.79730   0.67030   0.68144   0.01267  Uiso   1.00
C6     C     0.71640   0.57886   0.65512   0.01267  Uiso   1.00
C7     C     0.63384   0.61004   0.61891   0.01267  Uiso   1.00
C8     C     0.85287   0.59369   0.76295   0.01267  Uiso   1.00
C9     C     0.73858   0.59348   0.78269   0.01267  Uiso   1.00
C10    C     0.71509   0.54837   0.83142   0.01267  Uiso   1.00
C11    C     0.80379   0.50397   0.86053   0.01267  Uiso   1.00
C12    C     0.91843   0.50581   0.84014   0.01267  Uiso   1.00
C13    C     0.94243   0.54961   0.79121   0.01267  Uiso   1.00
C14    C     0.77312   0.45358   0.91220   0.01267  Uiso   1.00
C15    C     0.10336   0.94174   0.70546   0.01267  Uiso   1.00
C16    C     0.13152   0.04208   0.67523   0.01267  Uiso   1.00
C17    C     0.18402   0.02922   0.62782   0.01267  Uiso   1.00
C18    C     0.20818   0.91722   0.61076   0.01267  Uiso   1.00
C19    C     0.18159   0.81851   0.64259   0.01267  Uiso   1.00
C20    C     0.12994   0.82992   0.69006   0.01267  Uiso   1.00
C21    C     0.26434   0.89928   0.55940   0.01267  Uiso   1.00
C22    C     0.26039   0.28073   0.52199   0.01267  Uiso   1.00
C23    C     0.15337   0.23659   0.49470   0.01267  Uiso   1.00
C24    C     0.09455   0.31561   0.46829   0.01267  Uiso   1.00
C25    C     0.14520   0.44006   0.46906   0.01267  Uiso   1.00
C26    C     0.30479   0.40489   0.52258   0.01267  Uiso   1.00
C27    C     0.09240   0.53072   0.43921   0.01267  Uiso   1.00
C28    C     0.98147   0.50133   0.41161   0.01267  Uiso   1.00
C29    C     0.94070   0.58870   0.38359   0.01267  Uiso   1.00
C30    C     0.00840   0.70440   0.38392   0.01267  Uiso   1.00
C31    C     0.11755   0.73045   0.41369   0.01267  Uiso   1.00
C32    C     0.23792   0.45560   0.93284   0.01267  Uiso   1.00
C33    C     0.26869   0.36767   0.89171   0.01267  Uiso   1.00
C34    C     0.17743   0.28491   0.86487   0.01267  Uiso   1.00
C35    C     0.20817   0.20307   0.82778   0.01267  Uiso   1.00
C36    C     0.32970   0.20270   0.81856   0.01267  Uiso   1.00
C37    C     0.42114   0.28360   0.84488   0.01267  Uiso   1.00
C38    C     0.38996   0.36616   0.88109   0.01267  Uiso   1.00
C39    C     0.40631   0.14713   0.73705   0.01267  Uiso   1.00
C40    C     0.40652   0.26142   0.71731   0.01267  Uiso   1.00
C41    C     0.45163   0.28491   0.66858   0.01267  Uiso   1.00
C42    C     0.49603   0.19621   0.63947   0.01267  Uiso   1.00
C43    C     0.49419   0.08157   0.65986   0.01267  Uiso   1.00
C44    C     0.45039   0.05757   0.70879   0.01267  Uiso   1.00
C45    C     0.54642   0.22688   0.58780   0.01267  Uiso   1.00
C46    C     0.05826   0.89664   0.79454   0.01267  Uiso   1.00
C47    C     0.95792   0.86848   0.82477   0.01267  Uiso   1.00
C48    C     0.97078   0.81598   0.87218   0.01267  Uiso   1.00
C49    C     0.08278   0.79182   0.88924   0.01267  Uiso   1.00
C50    C     0.18149   0.81841   0.85741   0.01267  Uiso   1.00
C51    C     0.17008   0.87006   0.80994   0.01267  Uiso   1.00
C52    C     0.10072   0.73566   0.94060   0.01267  Uiso   1.00
C53    C     0.71927   0.73961   0.97801   0.01267  Uiso   1.00
C54    C     0.76341   0.84663   0.00530   0.01267  Uiso   1.00
C55    C     0.68439   0.90545   0.03171   0.01267  Uiso   1.00
C56    C     0.55994   0.85480   0.03094   0.01267  Uiso   1.00
C57    C     0.59511   0.69521   0.97742   0.01267  Uiso   1.00
C58    C     0.46928   0.90760   0.06079   0.01267  Uiso   1.00
C59    C     0.49867   0.01853   0.08839   0.01267  Uiso   1.00
C60    C     0.41130   0.05930   0.11641   0.01267  Uiso   1.00
C61    C     0.29560   0.99160   0.11608   0.01267  Uiso   1.00
C62    C     0.26955   0.88245   0.08631   0.01267  Uiso   1.00
C63    C     0.45560   0.23792   0.43284   0.01267  Uiso   1.00
C64    C     0.36767   0.26869   0.39171   0.01267  Uiso   1.00
C65    C     0.28491   0.17743   0.36487   0.01267  Uiso   1.00
C66    C     0.20307   0.20817   0.32778   0.01267  Uiso   1.00
C67    C     0.20270   0.32970   0.31856   0.01267  Uiso   1.00
C68    C     0.28360   0.42114   0.34488   0.01267  Uiso   1.00
C69    C     0.36616   0.38996   0.38109   0.01267  Uiso   1.00
C70    C     0.14713   0.40631   0.23705   0.01267  Uiso   1.00
C71    C     0.26142   0.40652   0.21731   0.01267  Uiso   1.00
C72    C     0.28491   0.45163   0.16858   0.01267  Uiso   1.00
C73    C     0.19621   0.49603   0.13947   0.01267  Uiso   1.00
C74    C     0.08157   0.49419   0.15986   0.01267  Uiso   1.00
C75    C     0.05757   0.45039   0.20879   0.01267  Uiso   1.00
C76    C     0.22688   0.54642   0.08780   0.01267  Uiso   1.00
C77    C     0.89664   0.05826   0.29454   0.01267  Uiso   1.00
C78    C     0.86848   0.95792   0.32477   0.01267  Uiso   1.00
C79    C     0.81598   0.97078   0.37218   0.01267  Uiso   1.00
C80    C     0.79182   0.08278   0.38924   0.01267  Uiso   1.00
C81    C     0.81841   0.18149   0.35741   0.01267  Uiso   1.00
C82    C     0.87006   0.17008   0.30994   0.01267  Uiso   1.00
C83    C     0.73566   0.10072   0.44060   0.01267  Uiso   1.00
C84    C     0.73961   0.71927   0.47801   0.01267  Uiso   1.00
C85    C     0.84663   0.76341   0.50530   0.01267  Uiso   1.00
C86    C     0.90545   0.68439   0.53171   0.01267  Uiso   1.00
C87    C     0.85480   0.55994   0.53094   0.01267  Uiso   1.00
C88    C     0.69521   0.59511   0.47742   0.01267  Uiso   1.00
C89    C     0.90760   0.46928   0.56079   0.01267  Uiso   1.00
C90    C     0.01853   0.49867   0.58839   0.01267  Uiso   1.00
C91    C     0.05930   0.41130   0.61641   0.01267  Uiso   1.00
C92    C     0.99160   0.29560   0.61608   0.01267  Uiso   1.00
C93    C     0.88245   0.26955   0.58631   0.01267  Uiso   1.00
C94    C     0.76208   0.54440   0.06716   0.01267  Uiso   1.00
C95    C     0.73131   0.63233   0.10829   0.01267  Uiso   1.00
C96    C     0.82257   0.71509   0.13513   0.01267  Uiso   1.00
C97    C     0.79183   0.79693   0.17222   0.01267  Uiso   1.00
C98    C     0.67030   0.79730   0.18144   0.01267  Uiso   1.00
C99    C     0.57886   0.71640   0.15512   0.01267  Uiso   1.00
C100   C     0.61004   0.63384   0.11891   0.01267  Uiso   1.00
C101   C     0.59369   0.85287   0.26295   0.01267  Uiso   1.00
C102   C     0.59348   0.73858   0.28269   0.01267  Uiso   1.00
C103   C     0.54837   0.71509   0.33142   0.01267  Uiso   1.00
C104   C     0.50397   0.80379   0.36053   0.01267  Uiso   1.00
C105   C     0.50581   0.91843   0.34014   0.01267  Uiso   1.00
C106   C     0.54961   0.94243   0.29121   0.01267  Uiso   1.00
C107   C     0.45358   0.77312   0.41220   0.01267  Uiso   1.00
C108   C     0.94174   0.10336   0.20546   0.01267  Uiso   1.00
C109   C     0.04208   0.13152   0.17523   0.01267  Uiso   1.00
C110   C     0.02922   0.18402   0.12782   0.01267  Uiso   1.00
C111   C     0.91722   0.20818   0.11076   0.01267  Uiso   1.00
C112   C     0.81851   0.18159   0.14259   0.01267  Uiso   1.00
C113   C     0.82992   0.12994   0.19006   0.01267  Uiso   1.00
C114   C     0.89928   0.26434   0.05940   0.01267  Uiso   1.00
C115   C     0.28073   0.26039   0.02199   0.01267  Uiso   1.00
C116   C     0.23659   0.15337   0.99470   0.01267  Uiso   1.00
C117   C     0.31561   0.09455   0.96829   0.01267  Uiso   1.00
C118   C     0.44006   0.14520   0.96906   0.01267  Uiso   1.00
C119   C     0.40489   0.30479   0.02258   0.01267  Uiso   1.00
C120   C     0.53072   0.09240   0.93921   0.01267  Uiso   1.00
C121   C     0.50133   0.98147   0.91161   0.01267  Uiso   1.00
C122   C     0.58870   0.94070   0.88359   0.01267  Uiso   1.00
C123   C     0.70440   0.00840   0.88392   0.01267  Uiso   1.00
C124   C     0.73045   0.11755   0.91369   0.01267  Uiso   1.00
N1     N     0.24941   0.48389   0.49668   0.01267  Uiso   1.00
N2     N     0.15843   0.64473   0.44053   0.01267  Uiso   1.00
N3     N     0.51611   0.75059   0.00332   0.01267  Uiso   1.00
N4     N     0.35527   0.84157   0.05947   0.01267  Uiso   1.00
N5     N     0.75059   0.51611   0.50332   0.01267  Uiso   1.00
N6     N     0.84157   0.35527   0.55947   0.01267  Uiso   1.00
N7     N     0.48389   0.24941   0.99668   0.01267  Uiso   1.00
N8     N     0.64473   0.15843   0.94053   0.01267  Uiso   1.00
O1     O     0.55609   0.86949   0.55308   0.01267  Uiso   1.00
O2     O     0.46407   0.67387   0.54965   0.01267  Uiso   1.00
O3     O     0.88700   0.64110   0.71580   0.01267  Uiso   1.00
O4     O     0.66460   0.44374   0.92606   0.01267  Uiso   1.00
O5     O     0.85350   0.41666   0.94081   0.01267  Uiso   1.00
O6     O     0.32890   0.98988   0.54006   0.01267  Uiso   1.00
O7     O     0.24152   0.79202   0.53985   0.01267  Uiso   1.00
O8     O     0.13051   0.44391   0.94692   0.01267  Uiso   1.00
O9     O     0.32613   0.53593   0.95035   0.01267  Uiso   1.00
O10    O     0.35890   0.11300   0.78420   0.01267  Uiso   1.00
O11    O     0.55626   0.33540   0.57394   0.01267  Uiso   1.00
O12    O     0.58334   0.14650   0.55919   0.01267  Uiso   1.00
O13    O     0.01012   0.67110   0.95994   0.01267  Uiso   1.00
O14    O     0.20798   0.75848   0.96015   0.01267  Uiso   1.00
O15    O     0.44391   0.13051   0.44692   0.01267  Uiso   1.00
O16    O     0.53593   0.32613   0.45035   0.01267  Uiso   1.00
O17    O     0.11300   0.35890   0.28420   0.01267  Uiso   1.00
O18    O     0.33540   0.55626   0.07394   0.01267  Uiso   1.00
O19    O     0.14650   0.58334   0.05919   0.01267  Uiso   1.00
O20    O     0.67110   0.01012   0.45994   0.01267  Uiso   1.00
O21    O     0.75848   0.20798   0.46015   0.01267  Uiso   1.00
O22    O     0.86949   0.55609   0.05308   0.01267  Uiso   1.00
O23    O     0.67387   0.46407   0.04965   0.01267  Uiso   1.00
O24    O     0.64110   0.88700   0.21580   0.01267  Uiso   1.00
O25    O     0.44374   0.66460   0.42606   0.01267  Uiso   1.00
O26    O     0.41666   0.85350   0.44081   0.01267  Uiso   1.00
O27    O     0.98988   0.32890   0.04006   0.01267  Uiso   1.00
O28    O     0.79202   0.24152   0.03985   0.01267  Uiso   1.00
O29    O     0.04020   0.95980   0.75000   0.01267  Uiso   1.00
O30    O     0.95980   0.04020   0.25000   0.01267  Uiso   1.00
