data_KEWZOD_clean
_audit_creation_date              2014-07-02
_audit_creation_method            'Materials Studio'
_symmetry_space_group_name_H-M    'P1'
_symmetry_Int_Tables_number       1
_symmetry_cell_setting            triclinic
loop_
_symmetry_equiv_pos_as_xyz
  x,y,z
_cell_length_a                    11.4414
_cell_length_b                    15.1309
_cell_length_c                    18.0855
_cell_angle_alpha                 90.0000
_cell_angle_beta                  90.0000
_cell_angle_gamma                 90.0000
loop_
_atom_site_label
_atom_site_type_symbol
_atom_site_fract_x
_atom_site_fract_y
_atom_site_fract_z
_atom_site_U_iso_or_equiv
_atom_site_adp_type
_atom_site_occupancy
Zn1    Zn    0.50000   0.55213   0.09842   0.01267  Uiso   1.00
Zn2    Zn    0.50000   0.44787   0.90158   0.01267  Uiso   1.00
Zn3    Zn    0.50000   0.94787   0.59842   0.01267  Uiso   1.00
Zn4    Zn    0.50000   0.05213   0.40158   0.01267  Uiso   1.00
H1     H     0.71060   0.66700   0.05030   0.01267  Uiso   1.00
H2     H     0.91200   0.67100   0.05160   0.01267  Uiso   1.00
H3     H     0.90800   0.43580   0.13690   0.01267  Uiso   1.00
H4     H     0.71450   0.44040   0.14010   0.01267  Uiso   1.00
H5     H     0.71060   0.33300   0.94970   0.01267  Uiso   1.00
H6     H     0.91200   0.32900   0.94840   0.01267  Uiso   1.00
H7     H     0.90800   0.56420   0.86310   0.01267  Uiso   1.00
H8     H     0.71450   0.55960   0.85990   0.01267  Uiso   1.00
H9     H     0.28940   0.83300   0.55030   0.01267  Uiso   1.00
H10    H     0.08800   0.82900   0.55160   0.01267  Uiso   1.00
H11    H     0.09200   0.06420   0.63690   0.01267  Uiso   1.00
H12    H     0.28550   0.05960   0.64010   0.01267  Uiso   1.00
H13    H     0.28940   0.16700   0.44970   0.01267  Uiso   1.00
H14    H     0.08800   0.17100   0.44840   0.01267  Uiso   1.00
H15    H     0.09200   0.93580   0.36310   0.01267  Uiso   1.00
H16    H     0.28550   0.94040   0.35990   0.01267  Uiso   1.00
H17    H     0.28940   0.33300   0.94970   0.01267  Uiso   1.00
H18    H     0.08800   0.32900   0.94840   0.01267  Uiso   1.00
H19    H     0.09200   0.56420   0.86310   0.01267  Uiso   1.00
H20    H     0.28550   0.55960   0.85990   0.01267  Uiso   1.00
H21    H     0.28940   0.66700   0.05030   0.01267  Uiso   1.00
H22    H     0.08800   0.67100   0.05160   0.01267  Uiso   1.00
H23    H     0.09200   0.43580   0.13690   0.01267  Uiso   1.00
H24    H     0.28550   0.44040   0.14010   0.01267  Uiso   1.00
H25    H     0.71060   0.16700   0.44970   0.01267  Uiso   1.00
H26    H     0.91200   0.17100   0.44840   0.01267  Uiso   1.00
H27    H     0.90800   0.93580   0.36310   0.01267  Uiso   1.00
H28    H     0.71450   0.94040   0.35990   0.01267  Uiso   1.00
H29    H     0.71060   0.83300   0.55030   0.01267  Uiso   1.00
H30    H     0.91200   0.82900   0.55160   0.01267  Uiso   1.00
H31    H     0.90800   0.06420   0.63690   0.01267  Uiso   1.00
H32    H     0.71450   0.05960   0.64010   0.01267  Uiso   1.00
H33    H     0.50000   0.96180   0.83650   0.01267  Uiso   1.00
H34    H     0.50000   0.79660   0.01220   0.01267  Uiso   1.00
H35    H     0.50000   0.69960   0.80500   0.01267  Uiso   1.00
H36    H     0.50000   0.03820   0.16350   0.01267  Uiso   1.00
H37    H     0.50000   0.20340   0.98780   0.01267  Uiso   1.00
H38    H     0.50000   0.30040   0.19500   0.01267  Uiso   1.00
H39    H     0.50000   0.53820   0.33650   0.01267  Uiso   1.00
H40    H     0.50000   0.70340   0.51220   0.01267  Uiso   1.00
H41    H     0.50000   0.80040   0.30500   0.01267  Uiso   1.00
H42    H     0.50000   0.46180   0.66350   0.01267  Uiso   1.00
H43    H     0.50000   0.29660   0.48780   0.01267  Uiso   1.00
H44    H     0.50000   0.19960   0.69500   0.01267  Uiso   1.00
C1     C     0.75080   0.61890   0.06970   0.01267  Uiso   1.00
C2     C     0.87370   0.62170   0.07050   0.01267  Uiso   1.00
C3     C     0.93540   0.55560   0.09770   0.01267  Uiso   1.00
C4     C     0.87040   0.48670   0.12040   0.01267  Uiso   1.00
C5     C     0.75360   0.48870   0.12020   0.01267  Uiso   1.00
C6     C     0.75080   0.38110   0.93030   0.01267  Uiso   1.00
C7     C     0.87370   0.37830   0.92950   0.01267  Uiso   1.00
C8     C     0.93540   0.44440   0.90230   0.01267  Uiso   1.00
C9     C     0.87040   0.51330   0.87960   0.01267  Uiso   1.00
C10    C     0.75360   0.51130   0.87980   0.01267  Uiso   1.00
C11    C     0.24920   0.88110   0.56970   0.01267  Uiso   1.00
C12    C     0.12630   0.87830   0.57050   0.01267  Uiso   1.00
C13    C     0.06460   0.94440   0.59770   0.01267  Uiso   1.00
C14    C     0.12960   0.01330   0.62040   0.01267  Uiso   1.00
C15    C     0.24640   0.01130   0.62020   0.01267  Uiso   1.00
C16    C     0.24920   0.11890   0.43030   0.01267  Uiso   1.00
C17    C     0.12630   0.12170   0.42950   0.01267  Uiso   1.00
C18    C     0.06460   0.05560   0.40230   0.01267  Uiso   1.00
C19    C     0.12960   0.98670   0.37960   0.01267  Uiso   1.00
C20    C     0.24640   0.98870   0.37980   0.01267  Uiso   1.00
C21    C     0.24920   0.38110   0.93030   0.01267  Uiso   1.00
C22    C     0.12630   0.37830   0.92950   0.01267  Uiso   1.00
C23    C     0.06460   0.44440   0.90230   0.01267  Uiso   1.00
C24    C     0.12960   0.51330   0.87960   0.01267  Uiso   1.00
C25    C     0.24640   0.51130   0.87980   0.01267  Uiso   1.00
C26    C     0.24920   0.61890   0.06970   0.01267  Uiso   1.00
C27    C     0.12630   0.62170   0.07050   0.01267  Uiso   1.00
C28    C     0.06460   0.55560   0.09770   0.01267  Uiso   1.00
C29    C     0.12960   0.48670   0.12040   0.01267  Uiso   1.00
C30    C     0.24640   0.48870   0.12020   0.01267  Uiso   1.00
C31    C     0.75080   0.11890   0.43030   0.01267  Uiso   1.00
C32    C     0.87370   0.12170   0.42950   0.01267  Uiso   1.00
C33    C     0.93540   0.05560   0.40230   0.01267  Uiso   1.00
C34    C     0.87040   0.98670   0.37960   0.01267  Uiso   1.00
C35    C     0.75360   0.98870   0.37980   0.01267  Uiso   1.00
C36    C     0.75080   0.88110   0.56970   0.01267  Uiso   1.00
C37    C     0.87370   0.87830   0.57050   0.01267  Uiso   1.00
C38    C     0.93540   0.94440   0.59770   0.01267  Uiso   1.00
C39    C     0.87040   0.01330   0.62040   0.01267  Uiso   1.00
C40    C     0.75360   0.01130   0.62020   0.01267  Uiso   1.00
C41    C     0.50000   0.83390   0.80840   0.01267  Uiso   1.00
C42    C     0.50000   0.90480   0.85570   0.01267  Uiso   1.00
C43    C     0.50000   0.89250   0.93390   0.01267  Uiso   1.00
C44    C     0.50000   0.80600   0.96140   0.01267  Uiso   1.00
C45    C     0.50000   0.73490   0.91420   0.01267  Uiso   1.00
C46    C     0.50000   0.74790   0.83680   0.01267  Uiso   1.00
C47    C     0.50000   0.84900   0.72620   0.01267  Uiso   1.00
C48    C     0.50000   0.64310   0.94470   0.01267  Uiso   1.00
C49    C     0.50000   0.96720   0.98130   0.01267  Uiso   1.00
C50    C     0.50000   0.16610   0.19160   0.01267  Uiso   1.00
C51    C     0.50000   0.09520   0.14430   0.01267  Uiso   1.00
C52    C     0.50000   0.10750   0.06610   0.01267  Uiso   1.00
C53    C     0.50000   0.19400   0.03860   0.01267  Uiso   1.00
C54    C     0.50000   0.26510   0.08580   0.01267  Uiso   1.00
C55    C     0.50000   0.25210   0.16320   0.01267  Uiso   1.00
C56    C     0.50000   0.15100   0.27380   0.01267  Uiso   1.00
C57    C     0.50000   0.35690   0.05530   0.01267  Uiso   1.00
C58    C     0.50000   0.03280   0.01870   0.01267  Uiso   1.00
C59    C     0.50000   0.66610   0.30840   0.01267  Uiso   1.00
C60    C     0.50000   0.59520   0.35570   0.01267  Uiso   1.00
C61    C     0.50000   0.60750   0.43390   0.01267  Uiso   1.00
C62    C     0.50000   0.69400   0.46140   0.01267  Uiso   1.00
C63    C     0.50000   0.76510   0.41420   0.01267  Uiso   1.00
C64    C     0.50000   0.75210   0.33680   0.01267  Uiso   1.00
C65    C     0.50000   0.65100   0.22620   0.01267  Uiso   1.00
C66    C     0.50000   0.85690   0.44470   0.01267  Uiso   1.00
C67    C     0.50000   0.53280   0.48130   0.01267  Uiso   1.00
C68    C     0.50000   0.33390   0.69160   0.01267  Uiso   1.00
C69    C     0.50000   0.40480   0.64430   0.01267  Uiso   1.00
C70    C     0.50000   0.39250   0.56610   0.01267  Uiso   1.00
C71    C     0.50000   0.30600   0.53860   0.01267  Uiso   1.00
C72    C     0.50000   0.23490   0.58580   0.01267  Uiso   1.00
C73    C     0.50000   0.24790   0.66320   0.01267  Uiso   1.00
C74    C     0.50000   0.34900   0.77380   0.01267  Uiso   1.00
C75    C     0.50000   0.14310   0.55530   0.01267  Uiso   1.00
C76    C     0.50000   0.46720   0.51870   0.01267  Uiso   1.00
N1     N     0.69080   0.55270   0.09450   0.01267  Uiso   1.00
N2     N     0.69080   0.44730   0.90550   0.01267  Uiso   1.00
N3     N     0.30920   0.94730   0.59450   0.01267  Uiso   1.00
N4     N     0.30920   0.05270   0.40550   0.01267  Uiso   1.00
N5     N     0.30920   0.44730   0.90550   0.01267  Uiso   1.00
N6     N     0.30920   0.55270   0.09450   0.01267  Uiso   1.00
N7     N     0.69080   0.05270   0.40550   0.01267  Uiso   1.00
N8     N     0.69080   0.94730   0.59450   0.01267  Uiso   1.00
O1     O     0.50000   0.63590   0.01350   0.01267  Uiso   1.00
O2     O     0.50000   0.58040   0.89980   0.01267  Uiso   1.00
O3     O     0.50000   0.92820   0.70640   0.01267  Uiso   1.00
O4     O     0.50000   0.78840   0.68420   0.01267  Uiso   1.00
O5     O     0.50000   0.36410   0.98650   0.01267  Uiso   1.00
O6     O     0.50000   0.41960   0.10020   0.01267  Uiso   1.00
O7     O     0.50000   0.07180   0.29360   0.01267  Uiso   1.00
O8     O     0.50000   0.21160   0.31580   0.01267  Uiso   1.00
O9     O     0.50000   0.86410   0.51350   0.01267  Uiso   1.00
O10    O     0.50000   0.91960   0.39980   0.01267  Uiso   1.00
O11    O     0.50000   0.57180   0.20640   0.01267  Uiso   1.00
O12    O     0.50000   0.71160   0.18420   0.01267  Uiso   1.00
O13    O     0.50000   0.13590   0.48650   0.01267  Uiso   1.00
O14    O     0.50000   0.08040   0.60020   0.01267  Uiso   1.00
O15    O     0.50000   0.42820   0.79360   0.01267  Uiso   1.00
O16    O     0.50000   0.28840   0.81580   0.01267  Uiso   1.00
