data_KEYDEZ_clean
_audit_creation_date              2014-07-02
_audit_creation_method            'Materials Studio'
_symmetry_space_group_name_H-M    'P1'
_symmetry_Int_Tables_number       1
_symmetry_cell_setting            triclinic
loop_
_symmetry_equiv_pos_as_xyz
  x,y,z
_cell_length_a                    13.9030
_cell_length_b                    15.4935
_cell_length_c                    15.9851
_cell_angle_alpha                 78.7486
_cell_angle_beta                  64.2232
_cell_angle_gamma                 63.3417
loop_
_atom_site_label
_atom_site_type_symbol
_atom_site_fract_x
_atom_site_fract_y
_atom_site_fract_z
_atom_site_U_iso_or_equiv
_atom_site_adp_type
_atom_site_occupancy
Ni1    Ni    0.21364   0.30178   0.52476   0.01267  Uiso   1.00
Ni2    Ni    0.48458   0.30178   0.47524   0.01267  Uiso   1.00
Ni3    Ni    0.20982   0.80178   0.02476   0.01267  Uiso   1.00
Ni4    Ni    0.98840   0.80178   0.97524   0.01267  Uiso   1.00
H1     H     0.30440   0.41780   0.45340   0.01267  Uiso   1.00
H2     H     0.17350   0.58880   0.24000   0.01267  Uiso   1.00
H3     H     0.88940   0.63300   0.19860   0.01267  Uiso   1.00
H4     H     0.97880   0.44040   0.39240   0.01267  Uiso   1.00
H5     H     0.97300   0.34060   0.54340   0.01267  Uiso   1.00
H6     H     0.84650   0.26660   0.59140   0.01267  Uiso   1.00
H7     H     0.10180   0.01940   0.59480   0.01267  Uiso   1.00
H8     H     0.22700   0.09840   0.55120   0.01267  Uiso   1.00
H9     H     0.89290   0.01340   0.92140   0.01267  Uiso   1.00
H10    H     0.84470   0.11200   0.80280   0.01267  Uiso   1.00
H11    H     0.98840   0.87440   0.65780   0.01267  Uiso   1.00
H12    H     0.03600   0.78820   0.77240   0.01267  Uiso   1.00
H13    H     0.27780   0.41780   0.54660   0.01267  Uiso   1.00
H14    H     0.23770   0.58880   0.76000   0.01267  Uiso   1.00
H15    H     0.47760   0.63300   0.80140   0.01267  Uiso   1.00
H16    H     0.58080   0.44040   0.60760   0.01267  Uiso   1.00
H17    H     0.68640   0.34060   0.45660   0.01267  Uiso   1.00
H18    H     0.88690   0.26660   0.40860   0.01267  Uiso   1.00
H19    H     0.87880   0.01940   0.40520   0.01267  Uiso   1.00
H20    H     0.67460   0.09840   0.44880   0.01267  Uiso   1.00
H21    H     0.09370   0.01340   0.07860   0.01267  Uiso   1.00
H22    H     0.04330   0.11200   0.19720   0.01267  Uiso   1.00
H23    H     0.13720   0.87440   0.34220   0.01267  Uiso   1.00
H24    H     0.17580   0.78820   0.22760   0.01267  Uiso   1.00
H25    H     0.07440   0.91780   0.95340   0.01267  Uiso   1.00
H26    H     0.24770   0.08880   0.74000   0.01267  Uiso   1.00
H27    H     0.52900   0.13300   0.69860   0.01267  Uiso   1.00
H28    H     0.43840   0.94040   0.89240   0.01267  Uiso   1.00
H29    H     0.39300   0.84060   0.04340   0.01267  Uiso   1.00
H30    H     0.54550   0.76660   0.09140   0.01267  Uiso   1.00
H31    H     0.53400   0.51940   0.09480   0.01267  Uiso   1.00
H32    H     0.37340   0.59840   0.05120   0.01267  Uiso   1.00
H33    H     0.42230   0.51340   0.42140   0.01267  Uiso   1.00
H34    H     0.49050   0.61200   0.30280   0.01267  Uiso   1.00
H35    H     0.72940   0.37440   0.15780   0.01267  Uiso   1.00
H36    H     0.65340   0.28820   0.27240   0.01267  Uiso   1.00
H37    H     0.00780   0.91780   0.04660   0.01267  Uiso   1.00
H38    H     0.66350   0.08880   0.26000   0.01267  Uiso   1.00
H39    H     0.33800   0.13300   0.30140   0.01267  Uiso   1.00
H40    H     0.62120   0.94040   0.10760   0.01267  Uiso   1.00
H41    H     0.76640   0.84060   0.95660   0.01267  Uiso   1.00
H42    H     0.68790   0.76660   0.90860   0.01267  Uiso   1.00
H43    H     0.94660   0.51940   0.90520   0.01267  Uiso   1.00
H44    H     0.02820   0.59840   0.94880   0.01267  Uiso   1.00
H45    H     0.06430   0.51340   0.57860   0.01267  Uiso   1.00
H46    H     0.89750   0.61200   0.69720   0.01267  Uiso   1.00
H47    H     0.89620   0.37440   0.84220   0.01267  Uiso   1.00
H48    H     0.05840   0.28820   0.72760   0.01267  Uiso   1.00
C1     C     0.16210   0.45580   0.38300   0.01267  Uiso   1.00
C2     C     0.08310   0.50540   0.32900   0.01267  Uiso   1.00
C3     C     0.10970   0.57480   0.25400   0.01267  Uiso   1.00
C4     C     0.04130   0.61720   0.20660   0.01267  Uiso   1.00
C5     C     0.93920   0.60120   0.22960   0.01267  Uiso   1.00
C6     C     0.91740   0.53600   0.30100   0.01267  Uiso   1.00
C7     C     0.99310   0.48660   0.34780   0.01267  Uiso   1.00
C8     C     0.06630   0.68520   0.12800   0.01267  Uiso   1.00
C9     C     0.00060   0.27480   0.55580   0.01267  Uiso   1.00
C10    C     0.92400   0.23060   0.58420   0.01267  Uiso   1.00
C11    C     0.96050   0.14140   0.59980   0.01267  Uiso   1.00
C12    C     0.07420   0.08600   0.58660   0.01267  Uiso   1.00
C13    C     0.14900   0.13420   0.55940   0.01267  Uiso   1.00
C14    C     0.91220   0.98460   0.86720   0.01267  Uiso   1.00
C15    C     0.88210   0.04520   0.79620   0.01267  Uiso   1.00
C16    C     0.90880   0.00400   0.72100   0.01267  Uiso   1.00
C17    C     0.96790   0.90460   0.71160   0.01267  Uiso   1.00
C18    C     0.99390   0.85460   0.78080   0.01267  Uiso   1.00
C19    C     0.38210   0.45580   0.61700   0.01267  Uiso   1.00
C20    C     0.41150   0.50540   0.67100   0.01267  Uiso   1.00
C21    C     0.31550   0.57480   0.74600   0.01267  Uiso   1.00
C22    C     0.34150   0.61720   0.79340   0.01267  Uiso   1.00
C23    C     0.45960   0.60120   0.77040   0.01267  Uiso   1.00
C24    C     0.54660   0.53600   0.69900   0.01267  Uiso   1.00
C25    C     0.52030   0.48660   0.65220   0.01267  Uiso   1.00
C26    C     0.24850   0.68520   0.87200   0.01267  Uiso   1.00
C27    C     0.72460   0.27480   0.44420   0.01267  Uiso   1.00
C28    C     0.84540   0.23060   0.41580   0.01267  Uiso   1.00
C29    C     0.89810   0.14140   0.40020   0.01267  Uiso   1.00
C30    C     0.83980   0.08600   0.41340   0.01267  Uiso   1.00
C31    C     0.71680   0.13420   0.44060   0.01267  Uiso   1.00
C32    C     0.10320   0.98460   0.13280   0.01267  Uiso   1.00
C33    C     0.07270   0.04520   0.20380   0.01267  Uiso   1.00
C34    C     0.08720   0.00400   0.27900   0.01267  Uiso   1.00
C35    C     0.12750   0.90460   0.28840   0.01267  Uiso   1.00
C36    C     0.15150   0.85460   0.21920   0.01267  Uiso   1.00
C37    C     0.24910   0.95580   0.88300   0.01267  Uiso   1.00
C38    C     0.33250   0.00540   0.82900   0.01267  Uiso   1.00
C39    C     0.31150   0.07480   0.75400   0.01267  Uiso   1.00
C40    C     0.38490   0.11720   0.70660   0.01267  Uiso   1.00
C41    C     0.48000   0.10120   0.72960   0.01267  Uiso   1.00
C42    C     0.49560   0.03600   0.80100   0.01267  Uiso   1.00
C43    C     0.42250   0.98660   0.84780   0.01267  Uiso   1.00
C44    C     0.37050   0.18520   0.62800   0.01267  Uiso   1.00
C45    C     0.41880   0.77480   0.05580   0.01267  Uiso   1.00
C46    C     0.51120   0.73060   0.08420   0.01267  Uiso   1.00
C47    C     0.54830   0.64140   0.09980   0.01267  Uiso   1.00
C48    C     0.50320   0.58600   0.08660   0.01267  Uiso   1.00
C49    C     0.40740   0.63420   0.05940   0.01267  Uiso   1.00
C50    C     0.48600   0.48460   0.36720   0.01267  Uiso   1.00
C51    C     0.52650   0.54520   0.29620   0.01267  Uiso   1.00
C52    C     0.61620   0.50400   0.22100   0.01267  Uiso   1.00
C53    C     0.66590   0.40460   0.21160   0.01267  Uiso   1.00
C54    C     0.62070   0.35460   0.28080   0.01267  Uiso   1.00
C55    C     0.79510   0.95580   0.11700   0.01267  Uiso   1.00
C56    C     0.66210   0.00540   0.17100   0.01267  Uiso   1.00
C57    C     0.61370   0.07480   0.24600   0.01267  Uiso   1.00
C58    C     0.49790   0.11720   0.29340   0.01267  Uiso   1.00
C59    C     0.41880   0.10120   0.27040   0.01267  Uiso   1.00
C60    C     0.46840   0.03600   0.19900   0.01267  Uiso   1.00
C61    C     0.59090   0.98660   0.15220   0.01267  Uiso   1.00
C62    C     0.44430   0.18520   0.37200   0.01267  Uiso   1.00
C63    C     0.80640   0.77480   0.94420   0.01267  Uiso   1.00
C64    C     0.75820   0.73060   0.91580   0.01267  Uiso   1.00
C65    C     0.81030   0.64140   0.90020   0.01267  Uiso   1.00
C66    C     0.91080   0.58600   0.91340   0.01267  Uiso   1.00
C67    C     0.95840   0.63420   0.94060   0.01267  Uiso   1.00
C68    C     0.02940   0.48460   0.63280   0.01267  Uiso   1.00
C69    C     0.92830   0.54520   0.70380   0.01267  Uiso   1.00
C70    C     0.87980   0.50400   0.77900   0.01267  Uiso   1.00
C71    C     0.92950   0.40460   0.78840   0.01267  Uiso   1.00
C72    C     0.02470   0.35460   0.71920   0.01267  Uiso   1.00
S1     S     0.86682   0.07642   0.63054   0.01267  Uiso   1.00
S2     S     0.05676   0.07642   0.36946   0.01267  Uiso   1.00
S3     S     0.67622   0.57642   0.13054   0.01267  Uiso   1.00
S4     S     0.74736   0.57642   0.86946   0.01267  Uiso   1.00
Br1    Br    0.78175   0.51460   0.33354   0.01267  Uiso   1.00
Br2    Br    0.70365   0.51460   0.66646   0.01267  Uiso   1.00
Br3    Br    0.62011   0.01460   0.83354   0.01267  Uiso   1.00
Br4    Br    0.36529   0.01460   0.16646   0.01267  Uiso   1.00
N1     N     0.96630   0.88920   0.86140   0.01267  Uiso   1.00
N2     N     0.11220   0.22700   0.54560   0.01267  Uiso   1.00
N3     N     0.14450   0.88920   0.13860   0.01267  Uiso   1.00
N4     N     0.66080   0.22700   0.45440   0.01267  Uiso   1.00
N5     N     0.53310   0.38920   0.36140   0.01267  Uiso   1.00
N6     N     0.36520   0.72700   0.04560   0.01267  Uiso   1.00
N7     N     0.07770   0.38920   0.63860   0.01267  Uiso   1.00
N8     N     0.90780   0.72700   0.95440   0.01267  Uiso   1.00
O1     O     0.13320   0.39480   0.44160   0.01267  Uiso   1.00
O2     O     0.23670   0.48340   0.37300   0.01267  Uiso   1.00
O3     O     0.14740   0.70860   0.11660   0.01267  Uiso   1.00
O4     O     0.00460   0.71440   0.08400   0.01267  Uiso   1.00
O5     O     0.47200   0.39480   0.55840   0.01267  Uiso   1.00
O6     O     0.27990   0.48340   0.62700   0.01267  Uiso   1.00
O7     O     0.14400   0.70860   0.88340   0.01267  Uiso   1.00
O8     O     0.28100   0.71440   0.91600   0.01267  Uiso   1.00
O9     O     0.28040   0.89480   0.94160   0.01267  Uiso   1.00
O10    O     0.15690   0.98340   0.87300   0.01267  Uiso   1.00
O11    O     0.27740   0.20860   0.61660   0.01267  Uiso   1.00
O12    O     0.44700   0.21440   0.58400   0.01267  Uiso   1.00
O13    O     0.82480   0.89480   0.05840   0.01267  Uiso   1.00
O14    O     0.85970   0.98340   0.12700   0.01267  Uiso   1.00
O15    O     0.51400   0.20860   0.38340   0.01267  Uiso   1.00
O16    O     0.33860   0.21440   0.41600   0.01267  Uiso   1.00
O17    O     0.30930   0.38140   0.50000   0.01267  Uiso   1.00
O18    O     0.05930   0.88140   0.00000   0.01267  Uiso   1.00
