data_KILFUI_clean
_audit_creation_date              2014-07-02
_audit_creation_method            'Materials Studio'
_symmetry_space_group_name_H-M    'P1'
_symmetry_Int_Tables_number       1
_symmetry_cell_setting            triclinic
loop_
_symmetry_equiv_pos_as_xyz
  x,y,z
_cell_length_a                    13.3670
_cell_length_b                    14.3066
_cell_length_c                    16.8235
_cell_angle_alpha                 105.1700
_cell_angle_beta                  102.8420
_cell_angle_gamma                 114.3050
loop_
_atom_site_label
_atom_site_type_symbol
_atom_site_fract_x
_atom_site_fract_y
_atom_site_fract_z
_atom_site_U_iso_or_equiv
_atom_site_adp_type
_atom_site_occupancy
Ni1    Ni    0.46407   0.54297   0.07634   0.01267  Uiso   1.00
Ni2    Ni    0.33757   0.44777   0.46454   0.01267  Uiso   1.00
Ni3    Ni    0.88773   0.46663   0.92366   0.01267  Uiso   1.00
Ni4    Ni    0.37303   0.98323   0.53546   0.01267  Uiso   1.00
H1     H     0.38060   0.35080   0.97980   0.01267  Uiso   1.00
H2     H     0.29440   0.49930   0.58980   0.01267  Uiso   1.00
H3     H     0.61400   0.92590   0.09640   0.01267  Uiso   1.00
H4     H     0.79300   0.98890   0.20040   0.01267  Uiso   1.00
H5     H     0.85070   0.88330   0.26300   0.01267  Uiso   1.00
H6     H     0.79230   0.62200   0.30020   0.01267  Uiso   1.00
H7     H     0.87320   0.72410   0.28280   0.01267  Uiso   1.00
H8     H     0.80490   0.73920   0.34520   0.01267  Uiso   1.00
H9     H     0.30530   0.76080   0.01140   0.01267  Uiso   1.00
H10    H     0.42680   0.83600   0.00700   0.01267  Uiso   1.00
H11    H     0.32940   0.72680   0.92420   0.01267  Uiso   1.00
H12    H     0.20170   0.51140   0.88500   0.01267  Uiso   1.00
H13    H     0.17610   0.50060   0.97000   0.01267  Uiso   1.00
H14    H     0.14090   0.33740   0.86680   0.01267  Uiso   1.00
H15    H     0.27670   0.39450   0.88880   0.01267  Uiso   1.00
H16    H     0.18590   0.26130   0.94400   0.01267  Uiso   1.00
H17    H     0.19770   0.36180   0.01920   0.01267  Uiso   1.00
H18    H     0.32440   0.24750   0.06160   0.01267  Uiso   1.00
H19    H     0.35710   0.35750   0.13900   0.01267  Uiso   1.00
H20    H     0.50530   0.29610   0.13840   0.01267  Uiso   1.00
H21    H     0.52950   0.35300   0.07200   0.01267  Uiso   1.00
H22    H     0.67100   0.47220   0.21560   0.01267  Uiso   1.00
H23    H     0.56990   0.47300   0.24840   0.01267  Uiso   1.00
H24    H     0.35630   0.17360   0.23540   0.01267  Uiso   1.00
H25    H     0.55870   0.26200   0.28600   0.01267  Uiso   1.00
H26    H     0.67340   0.43330   0.40620   0.01267  Uiso   1.00
H27    H     0.20100   0.13690   0.19880   0.01267  Uiso   1.00
H28    H     0.08770   0.09290   0.22240   0.01267  Uiso   1.00
H29    H     0.11450   0.18380   0.18220   0.01267  Uiso   1.00
H30    H     0.73490   0.60300   0.49740   0.01267  Uiso   1.00
H31    H     0.72690   0.70560   0.55100   0.01267  Uiso   1.00
H32    H     0.73950   0.62480   0.59480   0.01267  Uiso   1.00
H33    H     0.04340   0.26860   0.31800   0.01267  Uiso   1.00
H34    H     0.06810   0.19990   0.36920   0.01267  Uiso   1.00
H35    H     0.05980   0.28860   0.48320   0.01267  Uiso   1.00
H36    H     0.99000   0.32020   0.41820   0.01267  Uiso   1.00
H37    H     0.11940   0.48790   0.47220   0.01267  Uiso   1.00
H38    H     0.12320   0.45760   0.55400   0.01267  Uiso   1.00
H39    H     0.32320   0.66810   0.64240   0.01267  Uiso   1.00
H40    H     0.35170   0.68450   0.55960   0.01267  Uiso   1.00
H41    H     0.51230   0.74200   0.69020   0.01267  Uiso   1.00
H42    H     0.46960   0.61610   0.66640   0.01267  Uiso   1.00
H43    H     0.63470   0.69300   0.63960   0.01267  Uiso   1.00
H44    H     0.58130   0.74040   0.57800   0.01267  Uiso   1.00
H45    H     0.90080   0.37100   0.02020   0.01267  Uiso   1.00
H46    H     0.20460   0.90950   0.41020   0.01267  Uiso   1.00
H47    H     0.01760   0.82950   0.90360   0.01267  Uiso   1.00
H48    H     0.09260   0.78850   0.79960   0.01267  Uiso   1.00
H49    H     0.08770   0.62030   0.73700   0.01267  Uiso   1.00
H50    H     0.99210   0.32180   0.69980   0.01267  Uiso   1.00
H51    H     0.09040   0.44130   0.71720   0.01267  Uiso   1.00
H52    H     0.95970   0.39400   0.65480   0.01267  Uiso   1.00
H53    H     0.79390   0.74940   0.98860   0.01267  Uiso   1.00
H54    H     0.91980   0.82900   0.99300   0.01267  Uiso   1.00
H55    H     0.90520   0.80260   0.07580   0.01267  Uiso   1.00
H56    H     0.81670   0.62640   0.11500   0.01267  Uiso   1.00
H57    H     0.70610   0.53060   0.03000   0.01267  Uiso   1.00
H58    H     0.77410   0.47060   0.13320   0.01267  Uiso   1.00
H59    H     0.88790   0.50570   0.11120   0.01267  Uiso   1.00
H60    H     0.74190   0.31730   0.05600   0.01267  Uiso   1.00
H61    H     0.67850   0.34260   0.98080   0.01267  Uiso   1.00
H62    H     0.76280   0.18590   0.93840   0.01267  Uiso   1.00
H63    H     0.71810   0.21850   0.86100   0.01267  Uiso   1.00
H64    H     0.86690   0.15770   0.86160   0.01267  Uiso   1.00
H65    H     0.95750   0.28100   0.92800   0.01267  Uiso   1.00
H66    H     0.95540   0.25660   0.78440   0.01267  Uiso   1.00
H67    H     0.82150   0.22460   0.75160   0.01267  Uiso   1.00
H68    H     0.62090   0.93820   0.76460   0.01267  Uiso   1.00
H69    H     0.77270   0.97600   0.71400   0.01267  Uiso   1.00
H70    H     0.76720   0.02710   0.59380   0.01267  Uiso   1.00
H71    H     0.50220   0.93810   0.80120   0.01267  Uiso   1.00
H72    H     0.36530   0.87050   0.77760   0.01267  Uiso   1.00
H73    H     0.43230   0.00160   0.81780   0.01267  Uiso   1.00
H74    H     0.73750   0.10560   0.50260   0.01267  Uiso   1.00
H75    H     0.67590   0.15460   0.44900   0.01267  Uiso   1.00
H76    H     0.64470   0.03000   0.40520   0.01267  Uiso   1.00
H77    H     0.22540   0.95060   0.68200   0.01267  Uiso   1.00
H78    H     0.19890   0.83070   0.63080   0.01267  Uiso   1.00
H79    H     0.07660   0.80540   0.51680   0.01267  Uiso   1.00
H80    H     0.07180   0.90200   0.58180   0.01267  Uiso   1.00
H81    H     0.14720   0.01570   0.52780   0.01267  Uiso   1.00
H82    H     0.06920   0.90360   0.44600   0.01267  Uiso   1.00
H83    H     0.18080   0.02570   0.35760   0.01267  Uiso   1.00
H84    H     0.29210   0.12490   0.44040   0.01267  Uiso   1.00
H85    H     0.32210   0.05180   0.30980   0.01267  Uiso   1.00
H86    H     0.30320   0.94970   0.33360   0.01267  Uiso   1.00
H87    H     0.49510   0.05340   0.36040   0.01267  Uiso   1.00
H88    H     0.50330   0.16240   0.42200   0.01267  Uiso   1.00
W1     W     0.45077   0.37418   0.75530   0.01267  Uiso   1.00
W2     W     0.19547   0.61888   0.24470   0.01267  Uiso   1.00
C1     C     0.50790   0.47590   0.89580   0.01267  Uiso   1.00
C2     C     0.40440   0.37540   0.62280   0.01267  Uiso   1.00
C3     C     0.27410   0.56510   0.33820   0.01267  Uiso   1.00
C4     C     0.31400   0.57600   0.19400   0.01267  Uiso   1.00
C5     C     0.36960   0.48360   0.76320   0.01267  Uiso   1.00
C6     C     0.41550   0.26450   0.82100   0.01267  Uiso   1.00
C7     C     0.59130   0.53430   0.76860   0.01267  Uiso   1.00
C8     C     0.25730   0.26030   0.70660   0.01267  Uiso   1.00
C9     C     0.54470   0.76770   0.08940   0.01267  Uiso   1.00
C10    C     0.63000   0.87800   0.11800   0.01267  Uiso   1.00
C11    C     0.73810   0.91410   0.18220   0.01267  Uiso   1.00
C12    C     0.77690   0.85390   0.21980   0.01267  Uiso   1.00
C13    C     0.68660   0.74460   0.18520   0.01267  Uiso   1.00
C14    C     0.69980   0.66280   0.21560   0.01267  Uiso   1.00
C15    C     0.80130   0.68930   0.29260   0.01267  Uiso   1.00
C16    C     0.41160   0.69660   0.01920   0.01267  Uiso   1.00
C17    C     0.36500   0.76100   0.98800   0.01267  Uiso   1.00
C18    C     0.22680   0.49780   0.93760   0.01267  Uiso   1.00
C19    C     0.21730   0.38930   0.91460   0.01267  Uiso   1.00
C20    C     0.22990   0.34190   0.97580   0.01267  Uiso   1.00
C21    C     0.37560   0.32760   0.08920   0.01267  Uiso   1.00
C22    C     0.50370   0.35570   0.12140   0.01267  Uiso   1.00
C23    C     0.59400   0.46700   0.19800   0.01267  Uiso   1.00
C24    C     0.34340   0.29040   0.32480   0.01267  Uiso   1.00
C25    C     0.39980   0.24180   0.28360   0.01267  Uiso   1.00
C26    C     0.52200   0.29500   0.31400   0.01267  Uiso   1.00
C27    C     0.59110   0.39710   0.38620   0.01267  Uiso   1.00
C28    C     0.53320   0.44420   0.42640   0.01267  Uiso   1.00
C29    C     0.21410   0.24310   0.31220   0.01267  Uiso   1.00
C30    C     0.14940   0.15740   0.22080   0.01267  Uiso   1.00
C31    C     0.57550   0.55450   0.50100   0.01267  Uiso   1.00
C32    C     0.70500   0.62900   0.54000   0.01267  Uiso   1.00
C33    C     0.09500   0.27500   0.37200   0.01267  Uiso   1.00
C34    C     0.06700   0.33000   0.44600   0.01267  Uiso   1.00
C35    C     0.14700   0.45000   0.50400   0.01267  Uiso   1.00
C36    C     0.35420   0.64520   0.59840   0.01267  Uiso   1.00
C37    C     0.47530   0.67030   0.64060   0.01267  Uiso   1.00
C38    C     0.56290   0.67990   0.59780   0.01267  Uiso   1.00
C39    C     0.11210   0.58010   0.10420   0.01267  Uiso   1.00
C40    C     0.28160   0.75260   0.37720   0.01267  Uiso   1.00
C41    C     0.43590   0.22690   0.66180   0.01267  Uiso   1.00
C42    C     0.62000   0.38200   0.80600   0.01267  Uiso   1.00
C43    C     0.10640   0.72040   0.23680   0.01267  Uiso   1.00
C44    C     0.09450   0.44350   0.17900   0.01267  Uiso   1.00
C45    C     0.32270   0.76570   0.23140   0.01267  Uiso   1.00
C46    C     0.05070   0.55370   0.29340   0.01267  Uiso   1.00
C47    C     0.95530   0.67830   0.91060   0.01267  Uiso   1.00
C48    C     0.01200   0.76000   0.88200   0.01267  Uiso   1.00
C49    C     0.05590   0.73190   0.81780   0.01267  Uiso   1.00
C50    C     0.05710   0.63410   0.78020   0.01267  Uiso   1.00
C51    C     0.00140   0.55940   0.81480   0.01267  Uiso   1.00
C52    C     0.98420   0.44720   0.78440   0.01267  Uiso   1.00
C53    C     0.00870   0.39670   0.70740   0.01267  Uiso   1.00
C54    C     0.89240   0.67740   0.98080   0.01267  Uiso   1.00
C55    C     0.87700   0.77300   0.01200   0.01267  Uiso   1.00
C56    C     0.78920   0.56020   0.06240   0.01267  Uiso   1.00
C57    C     0.80270   0.47470   0.08540   0.01267  Uiso   1.00
C58    C     0.75410   0.36610   0.02420   0.01267  Uiso   1.00
C59    C     0.78640   0.23840   0.91080   0.01267  Uiso   1.00
C60    C     0.88230   0.23430   0.87860   0.01267  Uiso   1.00
C61    C     0.89600   0.26900   0.80200   0.01267  Uiso   1.00
C62    C     0.51860   0.96560   0.67520   0.01267  Uiso   1.00
C63    C     0.61620   0.95820   0.71640   0.01267  Uiso   1.00
C64    C     0.70800   0.98100   0.68600   0.01267  Uiso   1.00
C65    C     0.70490   0.01090   0.61380   0.01267  Uiso   1.00
C66    C     0.60680   0.01780   0.57360   0.01267  Uiso   1.00
C67    C     0.40190   0.93090   0.68780   0.01267  Uiso   1.00
C68    C     0.42860   0.93660   0.77920   0.01267  Uiso   1.00
C69    C     0.57450   0.05350   0.49900   0.01267  Uiso   1.00
C70    C     0.66500   0.08900   0.46000   0.01267  Uiso   1.00
C71    C     0.22300   0.90300   0.62800   0.01267  Uiso   1.00
C72    C     0.12100   0.88400   0.55400   0.01267  Uiso   1.00
C73    C     0.14300   0.94600   0.49600   0.01267  Uiso   1.00
C74    C     0.25580   0.04680   0.40160   0.01267  Uiso   1.00
C75    C     0.33470   0.02970   0.35940   0.01267  Uiso   1.00
C76    C     0.46510   0.08210   0.40220   0.01267  Uiso   1.00
N1     N     0.52790   0.51890   0.97000   0.01267  Uiso   1.00
N2     N     0.37890   0.37790   0.55580   0.01267  Uiso   1.00
N3     N     0.30830   0.53230   0.38460   0.01267  Uiso   1.00
N4     N     0.38410   0.56340   0.17060   0.01267  Uiso   1.00
N5     N     0.33040   0.53420   0.76240   0.01267  Uiso   1.00
N6     N     0.39680   0.21180   0.86160   0.01267  Uiso   1.00
N7     N     0.66600   0.61900   0.78400   0.01267  Uiso   1.00
N8     N     0.16090   0.20790   0.67980   0.01267  Uiso   1.00
N9     N     0.57530   0.70230   0.12460   0.01267  Uiso   1.00
N10    N     0.37330   0.59830   0.00460   0.01267  Uiso   1.00
N11    N     0.35730   0.37830   0.02260   0.01267  Uiso   1.00
N12    N     0.59950   0.55550   0.17100   0.01267  Uiso   1.00
N13    N     0.41420   0.39020   0.39440   0.01267  Uiso   1.00
N14    N     0.19550   0.30250   0.36500   0.01267  Uiso   1.00
N15    N     0.27980   0.52280   0.54560   0.01267  Uiso   1.00
N16    N     0.51390   0.57890   0.52780   0.01267  Uiso   1.00
N17    N     0.05790   0.54890   0.03000   0.01267  Uiso   1.00
N18    N     0.32310   0.82210   0.44420   0.01267  Uiso   1.00
N19    N     0.42370   0.14770   0.61540   0.01267  Uiso   1.00
N20    N     0.71350   0.39280   0.82940   0.01267  Uiso   1.00
N21    N     0.06800   0.77180   0.23760   0.01267  Uiso   1.00
N22    N     0.03520   0.35020   0.13840   0.01267  Uiso   1.00
N23    N     0.38200   0.83500   0.21600   0.01267  Uiso   1.00
N24    N     0.98110   0.52810   0.32020   0.01267  Uiso   1.00
N25    N     0.95070   0.57770   0.87540   0.01267  Uiso   1.00
N26    N     0.86870   0.59370   0.99540   0.01267  Uiso   1.00
N27    N     0.83470   0.35570   0.97740   0.01267  Uiso   1.00
N28    N     0.92850   0.38450   0.82900   0.01267  Uiso   1.00
N29    N     0.51980   0.99580   0.60560   0.01267  Uiso   1.00
N30    N     0.33050   0.93750   0.63500   0.01267  Uiso   1.00
N31    N     0.23420   0.97720   0.45440   0.01267  Uiso   1.00
N32    N     0.48610   0.05110   0.47220   0.01267  Uiso   1.00
