data_KINJUO_clean
_audit_creation_date              2014-07-02
_audit_creation_method            'Materials Studio'
_symmetry_space_group_name_H-M    'P1'
_symmetry_Int_Tables_number       1
_symmetry_cell_setting            triclinic
loop_
_symmetry_equiv_pos_as_xyz
  x,y,z
_cell_length_a                    10.5660
_cell_length_b                    16.0230
_cell_length_c                    24.1820
_cell_angle_alpha                 90.0000
_cell_angle_beta                  90.0000
_cell_angle_gamma                 104.6660
loop_
_atom_site_label
_atom_site_type_symbol
_atom_site_fract_x
_atom_site_fract_y
_atom_site_fract_z
_atom_site_U_iso_or_equiv
_atom_site_adp_type
_atom_site_occupancy
Cd1    Cd    0.30025   0.96092   0.90944   0.01267  Uiso   1.00
Cd2    Cd    0.19975   0.03908   0.40944   0.01267  Uiso   1.00
Cd3    Cd    0.69975   0.03908   0.09056   0.01267  Uiso   1.00
Cd4    Cd    0.80025   0.96092   0.59056   0.01267  Uiso   1.00
H1     H     0.06840   0.77410   0.93020   0.01267  Uiso   1.00
H2     H     0.15460   0.96650   0.03480   0.01267  Uiso   1.00
H3     H     0.95410   0.86680   0.06710   0.01267  Uiso   1.00
H4     H     0.84550   0.69470   0.92130   0.01267  Uiso   1.00
H5     H     0.66250   0.57650   0.92890   0.01267  Uiso   1.00
H6     H     0.66590   0.60760   0.09420   0.01267  Uiso   1.00
H7     H     0.84830   0.72360   0.08630   0.01267  Uiso   1.00
H8     H     0.59440   0.09560   0.94680   0.01267  Uiso   1.00
H9     H     0.24940   0.10920   0.99980   0.01267  Uiso   1.00
H10    H     0.40200   0.24660   0.02150   0.01267  Uiso   1.00
H11    H     0.74680   0.22590   0.92040   0.01267  Uiso   1.00
H12    H     0.92970   0.34160   0.92160   0.01267  Uiso   1.00
H13    H     0.79640   0.43790   0.05410   0.01267  Uiso   1.00
H14    H     0.61110   0.32320   0.05400   0.01267  Uiso   1.00
H15    H     0.37880   0.22870   0.80670   0.01267  Uiso   1.00
H16    H     0.32460   0.35120   0.77270   0.01267  Uiso   1.00
H17    H     0.94540   0.23960   0.80260   0.01267  Uiso   1.00
H18    H     0.99860   0.11800   0.83550   0.01267  Uiso   1.00
H19    H     0.07350   0.50340   0.65810   0.01267  Uiso   1.00
H20    H     0.03580   0.42030   0.83970   0.01267  Uiso   1.00
H21    H     0.15920   0.39020   0.63130   0.01267  Uiso   1.00
H22    H     0.24510   0.36020   0.67630   0.01267  Uiso   1.00
H23    H     0.10270   0.30480   0.66450   0.01267  Uiso   1.00
H24    H     0.92850   0.60890   0.81490   0.01267  Uiso   1.00
H25    H     0.87440   0.52350   0.84820   0.01267  Uiso   1.00
H26    H     0.01660   0.57980   0.85930   0.01267  Uiso   1.00
H27    H     0.15380   0.67200   0.67930   0.01267  Uiso   1.00
H28    H     0.09520   0.78620   0.63950   0.01267  Uiso   1.00
H29    H     0.72770   0.69430   0.69690   0.01267  Uiso   1.00
H30    H     0.78990   0.57730   0.73440   0.01267  Uiso   1.00
H31    H     0.43160   0.22590   0.43020   0.01267  Uiso   1.00
H32    H     0.34540   0.03350   0.53480   0.01267  Uiso   1.00
H33    H     0.54590   0.13320   0.56710   0.01267  Uiso   1.00
H34    H     0.65450   0.30530   0.42130   0.01267  Uiso   1.00
H35    H     0.83750   0.42350   0.42890   0.01267  Uiso   1.00
H36    H     0.83410   0.39240   0.59420   0.01267  Uiso   1.00
H37    H     0.65170   0.27640   0.58630   0.01267  Uiso   1.00
H38    H     0.90560   0.90440   0.44680   0.01267  Uiso   1.00
H39    H     0.25060   0.89080   0.49980   0.01267  Uiso   1.00
H40    H     0.09800   0.75340   0.52150   0.01267  Uiso   1.00
H41    H     0.75320   0.77410   0.42040   0.01267  Uiso   1.00
H42    H     0.57030   0.65840   0.42160   0.01267  Uiso   1.00
H43    H     0.70360   0.56210   0.55410   0.01267  Uiso   1.00
H44    H     0.88890   0.67680   0.55400   0.01267  Uiso   1.00
H45    H     0.12120   0.77130   0.30670   0.01267  Uiso   1.00
H46    H     0.17540   0.64880   0.27270   0.01267  Uiso   1.00
H47    H     0.55460   0.76040   0.30260   0.01267  Uiso   1.00
H48    H     0.50140   0.88200   0.33550   0.01267  Uiso   1.00
H49    H     0.42650   0.49660   0.15810   0.01267  Uiso   1.00
H50    H     0.46420   0.57970   0.33970   0.01267  Uiso   1.00
H51    H     0.34080   0.60980   0.13130   0.01267  Uiso   1.00
H52    H     0.25490   0.63980   0.17630   0.01267  Uiso   1.00
H53    H     0.39730   0.69520   0.16450   0.01267  Uiso   1.00
H54    H     0.57150   0.39110   0.31490   0.01267  Uiso   1.00
H55    H     0.62560   0.47650   0.34820   0.01267  Uiso   1.00
H56    H     0.48340   0.42020   0.35930   0.01267  Uiso   1.00
H57    H     0.34620   0.32800   0.17930   0.01267  Uiso   1.00
H58    H     0.40480   0.21380   0.13950   0.01267  Uiso   1.00
H59    H     0.77230   0.30570   0.19690   0.01267  Uiso   1.00
H60    H     0.71010   0.42270   0.23440   0.01267  Uiso   1.00
H61    H     0.93160   0.22590   0.06980   0.01267  Uiso   1.00
H62    H     0.84540   0.03350   0.96520   0.01267  Uiso   1.00
H63    H     0.04590   0.13320   0.93290   0.01267  Uiso   1.00
H64    H     0.15450   0.30530   0.07870   0.01267  Uiso   1.00
H65    H     0.33750   0.42350   0.07110   0.01267  Uiso   1.00
H66    H     0.33410   0.39240   0.90580   0.01267  Uiso   1.00
H67    H     0.15170   0.27640   0.91370   0.01267  Uiso   1.00
H68    H     0.40560   0.90440   0.05320   0.01267  Uiso   1.00
H69    H     0.75060   0.89080   0.00020   0.01267  Uiso   1.00
H70    H     0.59800   0.75340   0.97850   0.01267  Uiso   1.00
H71    H     0.25320   0.77410   0.07960   0.01267  Uiso   1.00
H72    H     0.07030   0.65840   0.07840   0.01267  Uiso   1.00
H73    H     0.20360   0.56210   0.94590   0.01267  Uiso   1.00
H74    H     0.38890   0.67680   0.94600   0.01267  Uiso   1.00
H75    H     0.62120   0.77130   0.19330   0.01267  Uiso   1.00
H76    H     0.67540   0.64880   0.22730   0.01267  Uiso   1.00
H77    H     0.05460   0.76040   0.19740   0.01267  Uiso   1.00
H78    H     0.00140   0.88200   0.16450   0.01267  Uiso   1.00
H79    H     0.92650   0.49660   0.34190   0.01267  Uiso   1.00
H80    H     0.96420   0.57970   0.16030   0.01267  Uiso   1.00
H81    H     0.84080   0.60980   0.36870   0.01267  Uiso   1.00
H82    H     0.75490   0.63980   0.32370   0.01267  Uiso   1.00
H83    H     0.89730   0.69520   0.33550   0.01267  Uiso   1.00
H84    H     0.07150   0.39110   0.18510   0.01267  Uiso   1.00
H85    H     0.12560   0.47650   0.15180   0.01267  Uiso   1.00
H86    H     0.98340   0.42020   0.14070   0.01267  Uiso   1.00
H87    H     0.84620   0.32800   0.32070   0.01267  Uiso   1.00
H88    H     0.90480   0.21380   0.36050   0.01267  Uiso   1.00
H89    H     0.27230   0.30570   0.30310   0.01267  Uiso   1.00
H90    H     0.21010   0.42270   0.26560   0.01267  Uiso   1.00
H91    H     0.56840   0.77410   0.56980   0.01267  Uiso   1.00
H92    H     0.65460   0.96650   0.46520   0.01267  Uiso   1.00
H93    H     0.45410   0.86680   0.43290   0.01267  Uiso   1.00
H94    H     0.34550   0.69470   0.57870   0.01267  Uiso   1.00
H95    H     0.16250   0.57650   0.57110   0.01267  Uiso   1.00
H96    H     0.16590   0.60760   0.40580   0.01267  Uiso   1.00
H97    H     0.34830   0.72360   0.41370   0.01267  Uiso   1.00
H98    H     0.09440   0.09560   0.55320   0.01267  Uiso   1.00
H99    H     0.74940   0.10920   0.50020   0.01267  Uiso   1.00
H100   H     0.90200   0.24660   0.47850   0.01267  Uiso   1.00
H101   H     0.24680   0.22590   0.57960   0.01267  Uiso   1.00
H102   H     0.42970   0.34160   0.57840   0.01267  Uiso   1.00
H103   H     0.29640   0.43790   0.44590   0.01267  Uiso   1.00
H104   H     0.11110   0.32320   0.44600   0.01267  Uiso   1.00
H105   H     0.87880   0.22870   0.69330   0.01267  Uiso   1.00
H106   H     0.82460   0.35120   0.72730   0.01267  Uiso   1.00
H107   H     0.44540   0.23960   0.69740   0.01267  Uiso   1.00
H108   H     0.49860   0.11800   0.66450   0.01267  Uiso   1.00
H109   H     0.57350   0.50340   0.84190   0.01267  Uiso   1.00
H110   H     0.53580   0.42030   0.66030   0.01267  Uiso   1.00
H111   H     0.65920   0.39020   0.86870   0.01267  Uiso   1.00
H112   H     0.74510   0.36020   0.82370   0.01267  Uiso   1.00
H113   H     0.60270   0.30480   0.83550   0.01267  Uiso   1.00
H114   H     0.42850   0.60890   0.68510   0.01267  Uiso   1.00
H115   H     0.37440   0.52350   0.65180   0.01267  Uiso   1.00
H116   H     0.51660   0.57980   0.64070   0.01267  Uiso   1.00
H117   H     0.65380   0.67200   0.82070   0.01267  Uiso   1.00
H118   H     0.59520   0.78620   0.86050   0.01267  Uiso   1.00
H119   H     0.22770   0.69430   0.80310   0.01267  Uiso   1.00
H120   H     0.28990   0.57730   0.76560   0.01267  Uiso   1.00
C1     C     0.06530   0.81010   0.96010   0.01267  Uiso   1.00
C2     C     0.11200   0.91520   0.01750   0.01267  Uiso   1.00
C3     C     0.00110   0.86030   0.03560   0.01267  Uiso   1.00
C4     C     0.86190   0.72080   0.00330   0.01267  Uiso   1.00
C5     C     0.80880   0.67740   0.95570   0.01267  Uiso   1.00
C6     C     0.69870   0.60700   0.96020   0.01267  Uiso   1.00
C7     C     0.64360   0.58300   0.01270   0.01267  Uiso   1.00
C8     C     0.70050   0.62530   0.05950   0.01267  Uiso   1.00
C9     C     0.81000   0.69470   0.05480   0.01267  Uiso   1.00
C10    C     0.52760   0.11550   0.96280   0.01267  Uiso   1.00
C11    C     0.33850   0.12370   0.99210   0.01267  Uiso   1.00
C12    C     0.42210   0.19980   0.00410   0.01267  Uiso   1.00
C13    C     0.65940   0.26440   0.98690   0.01267  Uiso   1.00
C14    C     0.75550   0.26880   0.94710   0.01267  Uiso   1.00
C15    C     0.86470   0.33830   0.94800   0.01267  Uiso   1.00
C16    C     0.87920   0.40200   0.98680   0.01267  Uiso   1.00
C17    C     0.78570   0.39580   0.02680   0.01267  Uiso   1.00
C18    C     0.67470   0.32690   0.02690   0.01267  Uiso   1.00
C19    C     0.23060   0.08500   0.84840   0.01267  Uiso   1.00
C20    C     0.19650   0.16030   0.82376   0.01267  Uiso   1.00
C21    C     0.29160   0.23050   0.80560   0.01267  Uiso   1.00
C22    C     0.25960   0.30480   0.78560   0.01267  Uiso   1.00
C23    C     0.12830   0.30800   0.78550   0.01267  Uiso   1.00
C24    C     0.03260   0.23770   0.80350   0.01267  Uiso   1.00
C25    C     0.06410   0.16450   0.82300   0.01267  Uiso   1.00
C26    C     0.09290   0.38740   0.76540   0.01267  Uiso   1.00
C27    C     0.10590   0.41250   0.70980   0.01267  Uiso   1.00
C28    C     0.06560   0.48620   0.69493   0.01267  Uiso   1.00
C29    C     0.01500   0.53450   0.73206   0.01267  Uiso   1.00
C30    C     0.00260   0.51050   0.78790   0.01267  Uiso   1.00
C31    C     0.04280   0.43710   0.80280   0.01267  Uiso   1.00
C32    C     0.15790   0.36240   0.66660   0.01267  Uiso   1.00
C33    C     0.95080   0.56020   0.83150   0.01267  Uiso   1.00
C34    C     0.97720   0.61270   0.71030   0.01267  Uiso   1.00
C35    C     0.06790   0.67620   0.68230   0.01267  Uiso   1.00
C36    C     0.03350   0.74490   0.65900   0.01267  Uiso   1.00
C37    C     0.90540   0.75320   0.66430   0.01267  Uiso   1.00
C38    C     0.81330   0.68970   0.69300   0.01267  Uiso   1.00
C39    C     0.85100   0.61980   0.71550   0.01267  Uiso   1.00
C40    C     0.86400   0.82820   0.63932   0.01267  Uiso   1.00
C41    C     0.43470   0.18990   0.46010   0.01267  Uiso   1.00
C42    C     0.38800   0.08480   0.51750   0.01267  Uiso   1.00
C43    C     0.49890   0.13970   0.53560   0.01267  Uiso   1.00
C44    C     0.63810   0.27920   0.50330   0.01267  Uiso   1.00
C45    C     0.69120   0.32260   0.45570   0.01267  Uiso   1.00
C46    C     0.80130   0.39300   0.46020   0.01267  Uiso   1.00
C47    C     0.85640   0.41700   0.51270   0.01267  Uiso   1.00
C48    C     0.79950   0.37470   0.55950   0.01267  Uiso   1.00
C49    C     0.69000   0.30530   0.55480   0.01267  Uiso   1.00
C50    C     0.97240   0.88450   0.46280   0.01267  Uiso   1.00
C51    C     0.16150   0.87630   0.49210   0.01267  Uiso   1.00
C52    C     0.07790   0.80020   0.50410   0.01267  Uiso   1.00
C53    C     0.84060   0.73560   0.48690   0.01267  Uiso   1.00
C54    C     0.74450   0.73120   0.44710   0.01267  Uiso   1.00
C55    C     0.63530   0.66170   0.44800   0.01267  Uiso   1.00
C56    C     0.62080   0.59800   0.48680   0.01267  Uiso   1.00
C57    C     0.71430   0.60420   0.52680   0.01267  Uiso   1.00
C58    C     0.82530   0.67310   0.52690   0.01267  Uiso   1.00
C59    C     0.26940   0.91500   0.34840   0.01267  Uiso   1.00
C60    C     0.30350   0.83970   0.32376   0.01267  Uiso   1.00
C61    C     0.20840   0.76950   0.30560   0.01267  Uiso   1.00
C62    C     0.24040   0.69520   0.28560   0.01267  Uiso   1.00
C63    C     0.37170   0.69200   0.28550   0.01267  Uiso   1.00
C64    C     0.46740   0.76230   0.30350   0.01267  Uiso   1.00
C65    C     0.43590   0.83550   0.32300   0.01267  Uiso   1.00
C66    C     0.40710   0.61260   0.26540   0.01267  Uiso   1.00
C67    C     0.39410   0.58750   0.20980   0.01267  Uiso   1.00
C68    C     0.43440   0.51380   0.19493   0.01267  Uiso   1.00
C69    C     0.48500   0.46550   0.23206   0.01267  Uiso   1.00
C70    C     0.49740   0.48950   0.28790   0.01267  Uiso   1.00
C71    C     0.45720   0.56290   0.30280   0.01267  Uiso   1.00
C72    C     0.34210   0.63760   0.16660   0.01267  Uiso   1.00
C73    C     0.54920   0.43980   0.33150   0.01267  Uiso   1.00
C74    C     0.52280   0.38730   0.21030   0.01267  Uiso   1.00
C75    C     0.43210   0.32380   0.18230   0.01267  Uiso   1.00
C76    C     0.46650   0.25510   0.15900   0.01267  Uiso   1.00
C77    C     0.59460   0.24680   0.16430   0.01267  Uiso   1.00
C78    C     0.68670   0.31030   0.19300   0.01267  Uiso   1.00
C79    C     0.64900   0.38020   0.21550   0.01267  Uiso   1.00
C80    C     0.63600   0.17180   0.13932   0.01267  Uiso   1.00
C81    C     0.93470   0.18990   0.03990   0.01267  Uiso   1.00
C82    C     0.88800   0.08480   0.98250   0.01267  Uiso   1.00
C83    C     0.99890   0.13970   0.96440   0.01267  Uiso   1.00
C84    C     0.13810   0.27920   0.99670   0.01267  Uiso   1.00
C85    C     0.19120   0.32260   0.04430   0.01267  Uiso   1.00
C86    C     0.30130   0.39300   0.03980   0.01267  Uiso   1.00
C87    C     0.35640   0.41700   0.98730   0.01267  Uiso   1.00
C88    C     0.29950   0.37470   0.94050   0.01267  Uiso   1.00
C89    C     0.19000   0.30530   0.94520   0.01267  Uiso   1.00
C90    C     0.47240   0.88450   0.03720   0.01267  Uiso   1.00
C91    C     0.66150   0.87630   0.00790   0.01267  Uiso   1.00
C92    C     0.57790   0.80020   0.99590   0.01267  Uiso   1.00
C93    C     0.34060   0.73560   0.01310   0.01267  Uiso   1.00
C94    C     0.24450   0.73120   0.05290   0.01267  Uiso   1.00
C95    C     0.13530   0.66170   0.05200   0.01267  Uiso   1.00
C96    C     0.12080   0.59800   0.01320   0.01267  Uiso   1.00
C97    C     0.21430   0.60420   0.97320   0.01267  Uiso   1.00
C98    C     0.32530   0.67310   0.97310   0.01267  Uiso   1.00
C99    C     0.76940   0.91500   0.15160   0.01267  Uiso   1.00
C100   C     0.80350   0.83970   0.17624   0.01267  Uiso   1.00
C101   C     0.70840   0.76950   0.19440   0.01267  Uiso   1.00
C102   C     0.74040   0.69520   0.21440   0.01267  Uiso   1.00
C103   C     0.87170   0.69200   0.21450   0.01267  Uiso   1.00
C104   C     0.96740   0.76230   0.19650   0.01267  Uiso   1.00
C105   C     0.93590   0.83550   0.17700   0.01267  Uiso   1.00
C106   C     0.90710   0.61260   0.23460   0.01267  Uiso   1.00
C107   C     0.89410   0.58750   0.29020   0.01267  Uiso   1.00
C108   C     0.93440   0.51380   0.30507   0.01267  Uiso   1.00
C109   C     0.98500   0.46550   0.26794   0.01267  Uiso   1.00
C110   C     0.99740   0.48950   0.21210   0.01267  Uiso   1.00
C111   C     0.95720   0.56290   0.19720   0.01267  Uiso   1.00
C112   C     0.84210   0.63760   0.33340   0.01267  Uiso   1.00
C113   C     0.04920   0.43980   0.16850   0.01267  Uiso   1.00
C114   C     0.02280   0.38730   0.28970   0.01267  Uiso   1.00
C115   C     0.93210   0.32380   0.31770   0.01267  Uiso   1.00
C116   C     0.96650   0.25510   0.34100   0.01267  Uiso   1.00
C117   C     0.09460   0.24680   0.33570   0.01267  Uiso   1.00
C118   C     0.18670   0.31030   0.30700   0.01267  Uiso   1.00
C119   C     0.14900   0.38020   0.28450   0.01267  Uiso   1.00
C120   C     0.13600   0.17180   0.36068   0.01267  Uiso   1.00
C121   C     0.56530   0.81010   0.53990   0.01267  Uiso   1.00
C122   C     0.61200   0.91520   0.48250   0.01267  Uiso   1.00
C123   C     0.50110   0.86030   0.46440   0.01267  Uiso   1.00
C124   C     0.36190   0.72080   0.49670   0.01267  Uiso   1.00
C125   C     0.30880   0.67740   0.54430   0.01267  Uiso   1.00
C126   C     0.19870   0.60700   0.53980   0.01267  Uiso   1.00
C127   C     0.14360   0.58300   0.48730   0.01267  Uiso   1.00
C128   C     0.20050   0.62530   0.44050   0.01267  Uiso   1.00
C129   C     0.31000   0.69470   0.44520   0.01267  Uiso   1.00
C130   C     0.02760   0.11550   0.53720   0.01267  Uiso   1.00
C131   C     0.83850   0.12370   0.50790   0.01267  Uiso   1.00
C132   C     0.92210   0.19980   0.49590   0.01267  Uiso   1.00
C133   C     0.15940   0.26440   0.51310   0.01267  Uiso   1.00
C134   C     0.25550   0.26880   0.55290   0.01267  Uiso   1.00
C135   C     0.36470   0.33830   0.55200   0.01267  Uiso   1.00
C136   C     0.37920   0.40200   0.51320   0.01267  Uiso   1.00
C137   C     0.28570   0.39580   0.47320   0.01267  Uiso   1.00
C138   C     0.17470   0.32690   0.47310   0.01267  Uiso   1.00
C139   C     0.73060   0.08500   0.65160   0.01267  Uiso   1.00
C140   C     0.69650   0.16030   0.67624   0.01267  Uiso   1.00
C141   C     0.79160   0.23050   0.69440   0.01267  Uiso   1.00
C142   C     0.75960   0.30480   0.71440   0.01267  Uiso   1.00
C143   C     0.62830   0.30800   0.71450   0.01267  Uiso   1.00
C144   C     0.53260   0.23770   0.69650   0.01267  Uiso   1.00
C145   C     0.56410   0.16450   0.67700   0.01267  Uiso   1.00
C146   C     0.59290   0.38740   0.73460   0.01267  Uiso   1.00
C147   C     0.60590   0.41250   0.79020   0.01267  Uiso   1.00
C148   C     0.56560   0.48620   0.80507   0.01267  Uiso   1.00
C149   C     0.51500   0.53450   0.76794   0.01267  Uiso   1.00
C150   C     0.50260   0.51050   0.71210   0.01267  Uiso   1.00
C151   C     0.54280   0.43710   0.69720   0.01267  Uiso   1.00
C152   C     0.65790   0.36240   0.83340   0.01267  Uiso   1.00
C153   C     0.45080   0.56020   0.66850   0.01267  Uiso   1.00
C154   C     0.47720   0.61270   0.78970   0.01267  Uiso   1.00
C155   C     0.56790   0.67620   0.81770   0.01267  Uiso   1.00
C156   C     0.53350   0.74490   0.84100   0.01267  Uiso   1.00
C157   C     0.40540   0.75320   0.83570   0.01267  Uiso   1.00
C158   C     0.31330   0.68970   0.80700   0.01267  Uiso   1.00
C159   C     0.35100   0.61980   0.78450   0.01267  Uiso   1.00
C160   C     0.36400   0.82820   0.86068   0.01267  Uiso   1.00
N1     N     0.15250   0.88390   0.96959   0.01267  Uiso   1.00
N2     N     0.97110   0.79380   0.99933   0.01267  Uiso   1.00
N3     N     0.52760   0.51460   0.02196   0.01267  Uiso   1.00
N4     N     0.99490   0.47170   0.98184   0.01267  Uiso   1.00
N5     N     0.54360   0.19510   0.98546   0.01267  Uiso   1.00
N6     N     0.40480   0.07010   0.96660   0.01267  Uiso   1.00
N7     N     0.34750   0.11610   0.46959   0.01267  Uiso   1.00
N8     N     0.52890   0.20620   0.49933   0.01267  Uiso   1.00
N9     N     0.97240   0.48540   0.52196   0.01267  Uiso   1.00
N10    N     0.50510   0.52830   0.48184   0.01267  Uiso   1.00
N11    N     0.95640   0.80490   0.48546   0.01267  Uiso   1.00
N12    N     0.09520   0.92990   0.46660   0.01267  Uiso   1.00
N13    N     0.84750   0.11610   0.03041   0.01267  Uiso   1.00
N14    N     0.02890   0.20620   0.00067   0.01267  Uiso   1.00
N15    N     0.47240   0.48540   0.97804   0.01267  Uiso   1.00
N16    N     0.00510   0.52830   0.01816   0.01267  Uiso   1.00
N17    N     0.45640   0.80490   0.01454   0.01267  Uiso   1.00
N18    N     0.59520   0.92990   0.03340   0.01267  Uiso   1.00
N19    N     0.65250   0.88390   0.53041   0.01267  Uiso   1.00
N20    N     0.47110   0.79380   0.50067   0.01267  Uiso   1.00
N21    N     0.02760   0.51460   0.47804   0.01267  Uiso   1.00
N22    N     0.49490   0.47170   0.51816   0.01267  Uiso   1.00
N23    N     0.04360   0.19510   0.51454   0.01267  Uiso   1.00
N24    N     0.90480   0.07010   0.53340   0.01267  Uiso   1.00
O1     O     0.14750   0.03380   0.87911   0.01267  Uiso   1.00
O2     O     0.34430   0.07340   0.84012   0.01267  Uiso   1.00
O3     O     0.74960   0.83370   0.64611   0.01267  Uiso   1.00
O4     O     0.94790   0.88440   0.61248   0.01267  Uiso   1.00
O5     O     0.35250   0.96620   0.37911   0.01267  Uiso   1.00
O6     O     0.15570   0.92660   0.34012   0.01267  Uiso   1.00
O7     O     0.75040   0.16630   0.14611   0.01267  Uiso   1.00
O8     O     0.55210   0.11560   0.11248   0.01267  Uiso   1.00
O9     O     0.85250   0.96620   0.12089   0.01267  Uiso   1.00
O10    O     0.65570   0.92660   0.15988   0.01267  Uiso   1.00
O11    O     0.25040   0.16630   0.35389   0.01267  Uiso   1.00
O12    O     0.05210   0.11560   0.38752   0.01267  Uiso   1.00
O13    O     0.64750   0.03380   0.62089   0.01267  Uiso   1.00
O14    O     0.84430   0.07340   0.65988   0.01267  Uiso   1.00
O15    O     0.24960   0.83370   0.85389   0.01267  Uiso   1.00
O16    O     0.44790   0.88440   0.88752   0.01267  Uiso   1.00
