data_KINKAV_clean
_audit_creation_date              2014-07-02
_audit_creation_method            'Materials Studio'
_symmetry_space_group_name_H-M    'P1'
_symmetry_Int_Tables_number       1
_symmetry_cell_setting            triclinic
loop_
_symmetry_equiv_pos_as_xyz
  x,y,z
_cell_length_a                    10.3240
_cell_length_b                    12.8130
_cell_length_c                    15.5260
_cell_angle_alpha                 90.0000
_cell_angle_beta                  104.6330
_cell_angle_gamma                 90.0000
loop_
_atom_site_label
_atom_site_type_symbol
_atom_site_fract_x
_atom_site_fract_y
_atom_site_fract_z
_atom_site_U_iso_or_equiv
_atom_site_adp_type
_atom_site_occupancy
Zn1    Zn    0.75000   0.81232   0.50000   0.01267  Uiso   1.00
Zn2    Zn    0.25000   0.18768   0.50000   0.01267  Uiso   1.00
H1     H     0.48880   0.83750   0.33950   0.01267  Uiso   1.00
H2     H     0.76690   0.04770   0.41760   0.01267  Uiso   1.00
H3     H     0.60220   0.12330   0.29110   0.01267  Uiso   1.00
H4     H     0.34260   0.84190   0.20130   0.01267  Uiso   1.00
H5     H     0.15900   0.86170   0.07890   0.01267  Uiso   1.00
H6     H     0.18180   0.16860   0.10790   0.01267  Uiso   1.00
H7     H     0.37010   0.15170   0.22400   0.01267  Uiso   1.00
H8     H     0.04240   0.69580   0.34240   0.01267  Uiso   1.00
H9     H     0.10250   0.62670   0.22090   0.01267  Uiso   1.00
H10    H     0.72720   0.52700   0.11980   0.01267  Uiso   1.00
H11    H     0.66510   0.59480   0.24070   0.01267  Uiso   1.00
H12    H     0.87070   0.37390   0.15120   0.01267  Uiso   1.00
H13    H     0.96290   0.29150   0.12140   0.01267  Uiso   1.00
H14    H     0.81720   0.31090   0.06280   0.01267  Uiso   1.00
H15    H     0.02050   0.67250   0.04290   0.01267  Uiso   1.00
H16    H     0.01120   0.83750   0.66050   0.01267  Uiso   1.00
H17    H     0.73310   0.04770   0.58240   0.01267  Uiso   1.00
H18    H     0.89780   0.12330   0.70890   0.01267  Uiso   1.00
H19    H     0.15740   0.84190   0.79870   0.01267  Uiso   1.00
H20    H     0.34100   0.86170   0.92110   0.01267  Uiso   1.00
H21    H     0.31820   0.16860   0.89210   0.01267  Uiso   1.00
H22    H     0.12990   0.15170   0.77600   0.01267  Uiso   1.00
H23    H     0.45760   0.69580   0.65760   0.01267  Uiso   1.00
H24    H     0.39750   0.62670   0.77910   0.01267  Uiso   1.00
H25    H     0.77280   0.52700   0.88020   0.01267  Uiso   1.00
H26    H     0.83490   0.59480   0.75930   0.01267  Uiso   1.00
H27    H     0.62930   0.37390   0.84880   0.01267  Uiso   1.00
H28    H     0.53710   0.29150   0.87860   0.01267  Uiso   1.00
H29    H     0.68280   0.31090   0.93720   0.01267  Uiso   1.00
H30    H     0.47950   0.67250   0.95710   0.01267  Uiso   1.00
H31    H     0.51120   0.16250   0.66050   0.01267  Uiso   1.00
H32    H     0.23310   0.95230   0.58240   0.01267  Uiso   1.00
H33    H     0.39780   0.87670   0.70890   0.01267  Uiso   1.00
H34    H     0.65740   0.15810   0.79870   0.01267  Uiso   1.00
H35    H     0.84100   0.13830   0.92110   0.01267  Uiso   1.00
H36    H     0.81820   0.83140   0.89210   0.01267  Uiso   1.00
H37    H     0.62990   0.84830   0.77600   0.01267  Uiso   1.00
H38    H     0.95760   0.30420   0.65760   0.01267  Uiso   1.00
H39    H     0.89750   0.37330   0.77910   0.01267  Uiso   1.00
H40    H     0.27280   0.47300   0.88020   0.01267  Uiso   1.00
H41    H     0.33490   0.40520   0.75930   0.01267  Uiso   1.00
H42    H     0.12930   0.62610   0.84880   0.01267  Uiso   1.00
H43    H     0.03710   0.70850   0.87860   0.01267  Uiso   1.00
H44    H     0.18280   0.68910   0.93720   0.01267  Uiso   1.00
H45    H     0.97950   0.32750   0.95710   0.01267  Uiso   1.00
H46    H     0.98880   0.16250   0.33950   0.01267  Uiso   1.00
H47    H     0.26690   0.95230   0.41760   0.01267  Uiso   1.00
H48    H     0.10220   0.87670   0.29110   0.01267  Uiso   1.00
H49    H     0.84260   0.15810   0.20130   0.01267  Uiso   1.00
H50    H     0.65900   0.13830   0.07890   0.01267  Uiso   1.00
H51    H     0.68180   0.83140   0.10790   0.01267  Uiso   1.00
H52    H     0.87010   0.84830   0.22400   0.01267  Uiso   1.00
H53    H     0.54240   0.30420   0.34240   0.01267  Uiso   1.00
H54    H     0.60250   0.37330   0.22090   0.01267  Uiso   1.00
H55    H     0.22720   0.47300   0.11980   0.01267  Uiso   1.00
H56    H     0.16510   0.40520   0.24070   0.01267  Uiso   1.00
H57    H     0.37070   0.62610   0.15120   0.01267  Uiso   1.00
H58    H     0.46290   0.70850   0.12140   0.01267  Uiso   1.00
H59    H     0.31720   0.68910   0.06280   0.01267  Uiso   1.00
H60    H     0.52050   0.32750   0.04290   0.01267  Uiso   1.00
C1     C     0.53300   0.90140   0.34750   0.01267  Uiso   1.00
C2     C     0.68670   0.01660   0.38800   0.01267  Uiso   1.00
C3     C     0.59670   0.05950   0.31850   0.01267  Uiso   1.00
C4     C     0.37510   0.99540   0.22430   0.01267  Uiso   1.00
C5     C     0.31140   0.90820   0.18210   0.01267  Uiso   1.00
C6     C     0.19970   0.91990   0.11020   0.01267  Uiso   1.00
C7     C     0.15060   0.01750   0.08600   0.01267  Uiso   1.00
C8     C     0.21420   0.10250   0.12680   0.01267  Uiso   1.00
C9     C     0.32680   0.09250   0.19620   0.01267  Uiso   1.00
C10    C     0.80330   0.70340   0.37950   0.01267  Uiso   1.00
C11    C     0.84540   0.65380   0.30360   0.01267  Uiso   1.00
C12    C     0.97880   0.66250   0.29770   0.01267  Uiso   1.00
C13    C     0.01430   0.62100   0.22460   0.01267  Uiso   1.00
C14    C     0.92090   0.57080   0.15630   0.01267  Uiso   1.00
C15    C     0.79050   0.56130   0.16410   0.01267  Uiso   1.00
C16    C     0.75300   0.60210   0.23670   0.01267  Uiso   1.00
C17    C     0.95980   0.53150   0.07570   0.01267  Uiso   1.00
C18    C     0.94660   0.42680   0.05000   0.01267  Uiso   1.00
C19    C     0.89460   0.34320   0.10100   0.01267  Uiso   1.00
C20    C     0.01250   0.60290   0.02550   0.01267  Uiso   1.00
C21    C     0.96700   0.90140   0.65250   0.01267  Uiso   1.00
C22    C     0.81330   0.01660   0.61200   0.01267  Uiso   1.00
C23    C     0.90330   0.05950   0.68150   0.01267  Uiso   1.00
C24    C     0.12490   0.99540   0.77570   0.01267  Uiso   1.00
C25    C     0.18860   0.90820   0.81790   0.01267  Uiso   1.00
C26    C     0.30030   0.91990   0.88980   0.01267  Uiso   1.00
C27    C     0.34940   0.01750   0.91400   0.01267  Uiso   1.00
C28    C     0.28580   0.10250   0.87320   0.01267  Uiso   1.00
C29    C     0.17320   0.09250   0.80380   0.01267  Uiso   1.00
C30    C     0.69670   0.70340   0.62050   0.01267  Uiso   1.00
C31    C     0.65460   0.65380   0.69640   0.01267  Uiso   1.00
C32    C     0.52120   0.66250   0.70230   0.01267  Uiso   1.00
C33    C     0.48570   0.62100   0.77540   0.01267  Uiso   1.00
C34    C     0.57910   0.57080   0.84370   0.01267  Uiso   1.00
C35    C     0.70950   0.56130   0.83590   0.01267  Uiso   1.00
C36    C     0.74700   0.60210   0.76330   0.01267  Uiso   1.00
C37    C     0.54020   0.53150   0.92430   0.01267  Uiso   1.00
C38    C     0.55340   0.42680   0.95000   0.01267  Uiso   1.00
C39    C     0.60540   0.34320   0.89900   0.01267  Uiso   1.00
C40    C     0.48750   0.60290   0.97450   0.01267  Uiso   1.00
C41    C     0.46700   0.09860   0.65250   0.01267  Uiso   1.00
C42    C     0.31330   0.98340   0.61200   0.01267  Uiso   1.00
C43    C     0.40330   0.94050   0.68150   0.01267  Uiso   1.00
C44    C     0.62490   0.00460   0.77570   0.01267  Uiso   1.00
C45    C     0.68860   0.09180   0.81790   0.01267  Uiso   1.00
C46    C     0.80030   0.08010   0.88980   0.01267  Uiso   1.00
C47    C     0.84940   0.98250   0.91400   0.01267  Uiso   1.00
C48    C     0.78580   0.89750   0.87320   0.01267  Uiso   1.00
C49    C     0.67320   0.90750   0.80380   0.01267  Uiso   1.00
C50    C     0.19670   0.29660   0.62050   0.01267  Uiso   1.00
C51    C     0.15460   0.34620   0.69640   0.01267  Uiso   1.00
C52    C     0.02120   0.33750   0.70230   0.01267  Uiso   1.00
C53    C     0.98570   0.37900   0.77540   0.01267  Uiso   1.00
C54    C     0.07910   0.42920   0.84370   0.01267  Uiso   1.00
C55    C     0.20950   0.43870   0.83590   0.01267  Uiso   1.00
C56    C     0.24700   0.39790   0.76330   0.01267  Uiso   1.00
C57    C     0.04020   0.46850   0.92430   0.01267  Uiso   1.00
C58    C     0.05340   0.57320   0.95000   0.01267  Uiso   1.00
C59    C     0.10540   0.65680   0.89900   0.01267  Uiso   1.00
C60    C     0.98750   0.39710   0.97450   0.01267  Uiso   1.00
C61    C     0.03300   0.09860   0.34750   0.01267  Uiso   1.00
C62    C     0.18670   0.98340   0.38800   0.01267  Uiso   1.00
C63    C     0.09670   0.94050   0.31850   0.01267  Uiso   1.00
C64    C     0.87510   0.00460   0.22430   0.01267  Uiso   1.00
C65    C     0.81140   0.09180   0.18210   0.01267  Uiso   1.00
C66    C     0.69970   0.08010   0.11020   0.01267  Uiso   1.00
C67    C     0.65060   0.98250   0.08600   0.01267  Uiso   1.00
C68    C     0.71420   0.89750   0.12680   0.01267  Uiso   1.00
C69    C     0.82680   0.90750   0.19620   0.01267  Uiso   1.00
C70    C     0.30330   0.29660   0.37950   0.01267  Uiso   1.00
C71    C     0.34540   0.34620   0.30360   0.01267  Uiso   1.00
C72    C     0.47880   0.33750   0.29770   0.01267  Uiso   1.00
C73    C     0.51430   0.37900   0.22460   0.01267  Uiso   1.00
C74    C     0.42090   0.42920   0.15630   0.01267  Uiso   1.00
C75    C     0.29050   0.43870   0.16410   0.01267  Uiso   1.00
C76    C     0.25300   0.39790   0.23670   0.01267  Uiso   1.00
C77    C     0.45980   0.46850   0.07570   0.01267  Uiso   1.00
C78    C     0.44660   0.57320   0.05000   0.01267  Uiso   1.00
C79    C     0.39460   0.65680   0.10100   0.01267  Uiso   1.00
C80    C     0.51250   0.39710   0.02550   0.01267  Uiso   1.00
N1     N     0.64220   0.91810   0.40960   0.01267  Uiso   1.00
N2     N     0.49060   0.98430   0.29660   0.01267  Uiso   1.00
N3     N     0.02720   0.04010   0.01580   0.01267  Uiso   1.00
N4     N     0.85780   0.91810   0.59040   0.01267  Uiso   1.00
N5     N     0.00940   0.98430   0.70340   0.01267  Uiso   1.00
N6     N     0.47280   0.04010   0.98420   0.01267  Uiso   1.00
N7     N     0.35780   0.08190   0.59040   0.01267  Uiso   1.00
N8     N     0.50940   0.01570   0.70340   0.01267  Uiso   1.00
N9     N     0.97280   0.95990   0.98420   0.01267  Uiso   1.00
N10    N     0.14220   0.08190   0.40960   0.01267  Uiso   1.00
N11    N     0.99060   0.01570   0.29660   0.01267  Uiso   1.00
N12    N     0.52720   0.95990   0.01580   0.01267  Uiso   1.00
O1     O     0.68760   0.69050   0.38840   0.01267  Uiso   1.00
O2     O     0.88580   0.76170   0.43306   0.01267  Uiso   1.00
O3     O     0.81240   0.69050   0.61160   0.01267  Uiso   1.00
O4     O     0.61420   0.76170   0.56694   0.01267  Uiso   1.00
O5     O     0.31240   0.30950   0.61160   0.01267  Uiso   1.00
O6     O     0.11420   0.23830   0.56694   0.01267  Uiso   1.00
O7     O     0.18760   0.30950   0.38840   0.01267  Uiso   1.00
O8     O     0.38580   0.23830   0.43306   0.01267  Uiso   1.00
