data_KIVFAX_clean
_audit_creation_date              2014-07-02
_audit_creation_method            'Materials Studio'
_symmetry_space_group_name_H-M    'P1'
_symmetry_Int_Tables_number       1
_symmetry_cell_setting            triclinic
loop_
_symmetry_equiv_pos_as_xyz
  x,y,z
_cell_length_a                    12.6320
_cell_length_b                    13.2340
_cell_length_c                    14.4310
_cell_angle_alpha                 87.7000
_cell_angle_beta                  67.3470
_cell_angle_gamma                 66.6280
loop_
_atom_site_label
_atom_site_type_symbol
_atom_site_fract_x
_atom_site_fract_y
_atom_site_fract_z
_atom_site_U_iso_or_equiv
_atom_site_adp_type
_atom_site_occupancy
Dy1    Dy    0.31683   0.12164   0.92713   0.01267  Uiso   1.00
Dy2    Dy    0.81307   0.12509   0.93362   0.01267  Uiso   1.00
Dy3    Dy    0.68317   0.87836   0.07287   0.01267  Uiso   1.00
Dy4    Dy    0.18693   0.87491   0.06638   0.01267  Uiso   1.00
H1     H     0.18330   0.54740   0.86020   0.01267  Uiso   1.00
H2     H     0.06450   0.62970   0.02760   0.01267  Uiso   1.00
H3     H     0.02410   0.51950   0.15530   0.01267  Uiso   1.00
H4     H     0.68660   0.54770   0.85640   0.01267  Uiso   1.00
H5     H     0.56170   0.63380   0.02420   0.01267  Uiso   1.00
H6     H     0.52540   0.52630   0.15220   0.01267  Uiso   1.00
H7     H     0.81670   0.45260   0.13980   0.01267  Uiso   1.00
H8     H     0.93550   0.37030   0.97240   0.01267  Uiso   1.00
H9     H     0.97590   0.48050   0.84470   0.01267  Uiso   1.00
H10    H     0.31340   0.45230   0.14360   0.01267  Uiso   1.00
H11    H     0.43830   0.36620   0.97580   0.01267  Uiso   1.00
H12    H     0.47460   0.47370   0.84780   0.01267  Uiso   1.00
C1     C     0.30830   0.32190   0.79030   0.01267  Uiso   1.00
C2     C     0.22700   0.38690   0.89300   0.01267  Uiso   1.00
C3     C     0.17130   0.50440   0.91260   0.01267  Uiso   1.00
C4     C     0.09850   0.55300   0.01190   0.01267  Uiso   1.00
C5     C     0.07600   0.48740   0.08850   0.01267  Uiso   1.00
C6     C     0.13310   0.37240   0.06260   0.01267  Uiso   1.00
C7     C     0.11120   0.29130   0.13400   0.01267  Uiso   1.00
C8     C     0.82140   0.32000   0.79390   0.01267  Uiso   1.00
C9     C     0.73140   0.38940   0.89360   0.01267  Uiso   1.00
C10    C     0.67420   0.50610   0.90990   0.01267  Uiso   1.00
C11    C     0.59800   0.55680   0.00950   0.01267  Uiso   1.00
C12    C     0.57700   0.49280   0.08570   0.01267  Uiso   1.00
C13    C     0.63190   0.37940   0.06410   0.01267  Uiso   1.00
C14    C     0.60870   0.30020   0.13850   0.01267  Uiso   1.00
C15    C     0.69170   0.67810   0.20970   0.01267  Uiso   1.00
C16    C     0.77300   0.61310   0.10700   0.01267  Uiso   1.00
C17    C     0.82870   0.49560   0.08740   0.01267  Uiso   1.00
C18    C     0.90150   0.44700   0.98810   0.01267  Uiso   1.00
C19    C     0.92400   0.51260   0.91150   0.01267  Uiso   1.00
C20    C     0.86690   0.62760   0.93740   0.01267  Uiso   1.00
C21    C     0.88880   0.70870   0.86600   0.01267  Uiso   1.00
C22    C     0.17860   0.68000   0.20610   0.01267  Uiso   1.00
C23    C     0.26860   0.61060   0.10640   0.01267  Uiso   1.00
C24    C     0.32580   0.49390   0.09010   0.01267  Uiso   1.00
C25    C     0.40200   0.44320   0.99050   0.01267  Uiso   1.00
C26    C     0.42300   0.50720   0.91430   0.01267  Uiso   1.00
C27    C     0.36810   0.62060   0.93590   0.01267  Uiso   1.00
C28    C     0.39130   0.69980   0.86150   0.01267  Uiso   1.00
S1     S     0.06970   0.10498   0.92610   0.01267  Uiso   1.00
S2     S     0.56820   0.10793   0.92740   0.01267  Uiso   1.00
S3     S     0.93030   0.89502   0.07390   0.01267  Uiso   1.00
S4     S     0.43180   0.89207   0.07260   0.01267  Uiso   1.00
N1     N     0.20820   0.32560   0.96680   0.01267  Uiso   1.00
N2     N     0.70980   0.32950   0.96950   0.01267  Uiso   1.00
N3     N     0.79180   0.67440   0.03320   0.01267  Uiso   1.00
N4     N     0.29020   0.67050   0.03050   0.01267  Uiso   1.00
O1     O     0.36730   0.21830   0.78970   0.01267  Uiso   1.00
O2     O     0.31320   0.36930   0.71320   0.01267  Uiso   1.00
O3     O     0.17620   0.18930   0.09760   0.01267  Uiso   1.00
O4     O     0.03010   0.32510   0.22110   0.01267  Uiso   1.00
O5     O     0.87440   0.21620   0.79590   0.01267  Uiso   1.00
O6     O     0.84060   0.36680   0.71470   0.01267  Uiso   1.00
O7     O     0.67220   0.19630   0.10230   0.01267  Uiso   1.00
O8     O     0.53100   0.33700   0.22690   0.01267  Uiso   1.00
O9     O     0.13690   0.17430   0.87790   0.01267  Uiso   1.00
O10    O     0.14680   0.02860   0.97810   0.01267  Uiso   1.00
O11    O     0.05400   0.04140   0.85490   0.01267  Uiso   1.00
O12    O     0.94110   0.17450   0.00030   0.01267  Uiso   1.00
O13    O     0.55770   0.04550   0.85290   0.01267  Uiso   1.00
O14    O     0.43660   0.17690   0.99930   0.01267  Uiso   1.00
O15    O     0.63670   0.17750   0.88280   0.01267  Uiso   1.00
O16    O     0.64090   0.03190   0.98180   0.01267  Uiso   1.00
O17    O     0.63270   0.78170   0.21030   0.01267  Uiso   1.00
O18    O     0.68680   0.63070   0.28680   0.01267  Uiso   1.00
O19    O     0.82380   0.81070   0.90240   0.01267  Uiso   1.00
O20    O     0.96990   0.67490   0.77890   0.01267  Uiso   1.00
O21    O     0.12560   0.78380   0.20410   0.01267  Uiso   1.00
O22    O     0.15940   0.63320   0.28530   0.01267  Uiso   1.00
O23    O     0.32780   0.80370   0.89770   0.01267  Uiso   1.00
O24    O     0.46900   0.66300   0.77310   0.01267  Uiso   1.00
O25    O     0.86310   0.82570   0.12210   0.01267  Uiso   1.00
O26    O     0.85320   0.97140   0.02190   0.01267  Uiso   1.00
O27    O     0.94600   0.95860   0.14510   0.01267  Uiso   1.00
O28    O     0.05890   0.82550   0.99970   0.01267  Uiso   1.00
O29    O     0.44230   0.95450   0.14710   0.01267  Uiso   1.00
O30    O     0.56340   0.82310   0.00070   0.01267  Uiso   1.00
O31    O     0.36330   0.82250   0.11720   0.01267  Uiso   1.00
O32    O     0.35910   0.96810   0.01820   0.01267  Uiso   1.00
