data_KOJYEO_clean
_audit_creation_date              2014-07-02
_audit_creation_method            'Materials Studio'
_symmetry_space_group_name_H-M    'P1'
_symmetry_Int_Tables_number       1
_symmetry_cell_setting            triclinic
loop_
_symmetry_equiv_pos_as_xyz
  x,y,z
_cell_length_a                    10.0433
_cell_length_b                    10.0433
_cell_length_c                    11.7340
_cell_angle_alpha                 100.2410
_cell_angle_beta                  100.2410
_cell_angle_gamma                 97.6824
loop_
_atom_site_label
_atom_site_type_symbol
_atom_site_fract_x
_atom_site_fract_y
_atom_site_fract_z
_atom_site_U_iso_or_equiv
_atom_site_adp_type
_atom_site_occupancy
Cu1    Cu    0.94289   0.94289   0.07500   0.01267  Uiso   1.00
Cu2    Cu    0.05711   0.05711   0.92500   0.01267  Uiso   1.00
H1     H     0.31120   0.44080   0.06300   0.01267  Uiso   1.00
H2     H     0.30120   0.56000   0.43800   0.01267  Uiso   1.00
H3     H     0.10660   0.46500   0.09250   0.01267  Uiso   1.00
H4     H     0.07120   0.61240   0.12620   0.01267  Uiso   1.00
H5     H     0.03060   0.34200   0.21630   0.01267  Uiso   1.00
H6     H     0.03820   0.41860   0.34650   0.01267  Uiso   1.00
H7     H     0.08580   0.50020   0.25460   0.01267  Uiso   1.00
H8     H     0.55920   0.68880   0.93700   0.01267  Uiso   1.00
H9     H     0.44000   0.69880   0.56200   0.01267  Uiso   1.00
H10    H     0.53500   0.89340   0.90750   0.01267  Uiso   1.00
H11    H     0.38760   0.92880   0.87380   0.01267  Uiso   1.00
H12    H     0.65800   0.96940   0.78370   0.01267  Uiso   1.00
H13    H     0.58140   0.96180   0.65350   0.01267  Uiso   1.00
H14    H     0.49980   0.91420   0.74540   0.01267  Uiso   1.00
H15    H     0.68880   0.55920   0.93700   0.01267  Uiso   1.00
H16    H     0.69880   0.44000   0.56200   0.01267  Uiso   1.00
H17    H     0.89340   0.53500   0.90750   0.01267  Uiso   1.00
H18    H     0.92880   0.38760   0.87380   0.01267  Uiso   1.00
H19    H     0.96940   0.65800   0.78370   0.01267  Uiso   1.00
H20    H     0.96180   0.58140   0.65350   0.01267  Uiso   1.00
H21    H     0.91420   0.49980   0.74540   0.01267  Uiso   1.00
H22    H     0.44080   0.31120   0.06300   0.01267  Uiso   1.00
H23    H     0.56000   0.30120   0.43800   0.01267  Uiso   1.00
H24    H     0.46500   0.10660   0.09250   0.01267  Uiso   1.00
H25    H     0.61240   0.07120   0.12620   0.01267  Uiso   1.00
H26    H     0.34200   0.03060   0.21630   0.01267  Uiso   1.00
H27    H     0.41860   0.03820   0.34650   0.01267  Uiso   1.00
H28    H     0.50020   0.08580   0.25460   0.01267  Uiso   1.00
C1     C     0.23890   0.61370   0.03940   0.01267  Uiso   1.00
C2     C     0.33160   0.52240   0.03760   0.01267  Uiso   1.00
C3     C     0.23150   0.38490   0.31650   0.01267  Uiso   1.00
C4     C     0.32530   0.47690   0.40680   0.01267  Uiso   1.00
C5     C     0.09680   0.54880   0.06600   0.01267  Uiso   1.00
C6     C     0.08210   0.41430   0.27990   0.01267  Uiso   1.00
C7     C     0.38630   0.76110   0.96060   0.01267  Uiso   1.00
C8     C     0.47760   0.66840   0.96240   0.01267  Uiso   1.00
C9     C     0.61510   0.76850   0.68350   0.01267  Uiso   1.00
C10    C     0.52310   0.67470   0.59320   0.01267  Uiso   1.00
C11    C     0.45120   0.90320   0.93400   0.01267  Uiso   1.00
C12    C     0.58570   0.91790   0.72010   0.01267  Uiso   1.00
C13    C     0.76110   0.38630   0.96060   0.01267  Uiso   1.00
C14    C     0.66840   0.47760   0.96240   0.01267  Uiso   1.00
C15    C     0.76850   0.61510   0.68350   0.01267  Uiso   1.00
C16    C     0.67470   0.52310   0.59320   0.01267  Uiso   1.00
C17    C     0.90320   0.45120   0.93400   0.01267  Uiso   1.00
C18    C     0.91790   0.58570   0.72010   0.01267  Uiso   1.00
C19    C     0.61370   0.23890   0.03940   0.01267  Uiso   1.00
C20    C     0.52240   0.33160   0.03760   0.01267  Uiso   1.00
C21    C     0.38490   0.23150   0.31650   0.01267  Uiso   1.00
C22    C     0.47690   0.32530   0.40680   0.01267  Uiso   1.00
C23    C     0.54880   0.09680   0.06600   0.01267  Uiso   1.00
C24    C     0.41430   0.08210   0.27990   0.01267  Uiso   1.00
C25    C     0.16380   0.16380   0.17060   0.01267  Uiso   1.00
C26    C     0.26250   0.26250   0.27010   0.01267  Uiso   1.00
C27    C     0.45000   0.45000   0.45110   0.01267  Uiso   1.00
C28    C     0.83620   0.83620   0.82940   0.01267  Uiso   1.00
C29    C     0.73750   0.73750   0.72990   0.01267  Uiso   1.00
C30    C     0.55000   0.55000   0.54890   0.01267  Uiso   1.00
C31    C     0.16640   0.83360   0.00000   0.01267  Uiso   1.00
C32    C     0.26500   0.73500   0.00000   0.01267  Uiso   1.00
C33    C     0.45140   0.54860   0.00000   0.01267  Uiso   1.00
C34    C     0.83360   0.16640   0.00000   0.01267  Uiso   1.00
C35    C     0.73500   0.26500   0.00000   0.01267  Uiso   1.00
C36    C     0.54860   0.45140   0.00000   0.01267  Uiso   1.00
O1     O     0.08058   0.82382   0.06400   0.01267  Uiso   1.00
O2     O     0.17618   0.91942   0.93600   0.01267  Uiso   1.00
O3     O     0.91942   0.17618   0.93600   0.01267  Uiso   1.00
O4     O     0.82382   0.08058   0.06400   0.01267  Uiso   1.00
O5     O     0.07820   0.07820   0.19610   0.01267  Uiso   1.00
O6     O     0.17520   0.17520   0.06820   0.01267  Uiso   1.00
O7     O     0.92180   0.92180   0.80390   0.01267  Uiso   1.00
O8     O     0.82480   0.82480   0.93180   0.01267  Uiso   1.00
