data_KOJZAL_clean
_audit_creation_date              2014-07-02
_audit_creation_method            'Materials Studio'
_symmetry_space_group_name_H-M    'P1'
_symmetry_Int_Tables_number       1
_symmetry_cell_setting            triclinic
loop_
_symmetry_equiv_pos_as_xyz
  x,y,z
_cell_length_a                    10.0482
_cell_length_b                    17.0076
_cell_length_c                    17.0076
_cell_angle_alpha                 64.8583
_cell_angle_beta                  72.8183
_cell_angle_gamma                 72.8183
loop_
_atom_site_label
_atom_site_type_symbol
_atom_site_fract_x
_atom_site_fract_y
_atom_site_fract_z
_atom_site_U_iso_or_equiv
_atom_site_adp_type
_atom_site_occupancy
Cu1    Cu    0.38760   0.46110   0.53890   0.01267  Uiso   1.00
Cu2    Cu    0.61240   0.53890   0.46110   0.01267  Uiso   1.00
H1     H     0.05820   0.69290   0.53170   0.01267  Uiso   1.00
H2     H     0.91400   0.82580   0.53580   0.01267  Uiso   1.00
H3     H     0.25740   0.93380   0.46120   0.01267  Uiso   1.00
H4     H     0.40190   0.80290   0.45110   0.01267  Uiso   1.00
H5     H     0.95850   0.50230   0.55590   0.01267  Uiso   1.00
H6     H     0.11620   0.21160   0.73020   0.01267  Uiso   1.00
H7     H     0.82130   0.32590   0.73230   0.01267  Uiso   1.00
H8     H     0.71720   0.53170   0.69290   0.01267  Uiso   1.00
H9     H     0.72440   0.53580   0.82580   0.01267  Uiso   1.00
H10    H     0.34760   0.46120   0.93380   0.01267  Uiso   1.00
H11    H     0.34410   0.45110   0.80290   0.01267  Uiso   1.00
H12    H     0.98330   0.55590   0.50230   0.01267  Uiso   1.00
H13    H     0.94200   0.73020   0.21160   0.01267  Uiso   1.00
H14    H     0.12050   0.73230   0.32590   0.01267  Uiso   1.00
H15    H     0.94180   0.30710   0.46830   0.01267  Uiso   1.00
H16    H     0.08600   0.17420   0.46420   0.01267  Uiso   1.00
H17    H     0.74260   0.06620   0.53880   0.01267  Uiso   1.00
H18    H     0.59810   0.19710   0.54890   0.01267  Uiso   1.00
H19    H     0.04150   0.49770   0.44410   0.01267  Uiso   1.00
H20    H     0.88380   0.78840   0.26980   0.01267  Uiso   1.00
H21    H     0.17870   0.67410   0.26770   0.01267  Uiso   1.00
H22    H     0.28280   0.46830   0.30710   0.01267  Uiso   1.00
H23    H     0.27560   0.46420   0.17420   0.01267  Uiso   1.00
H24    H     0.65240   0.53880   0.06620   0.01267  Uiso   1.00
H25    H     0.65590   0.54890   0.19710   0.01267  Uiso   1.00
H26    H     0.01670   0.44410   0.49770   0.01267  Uiso   1.00
H27    H     0.05800   0.26980   0.78840   0.01267  Uiso   1.00
H28    H     0.87950   0.26770   0.67410   0.01267  Uiso   1.00
H29    H     0.11100   0.50340   0.49660   0.01267  Uiso   1.00
H30    H     0.19980   0.28170   0.71830   0.01267  Uiso   1.00
H31    H     0.83630   0.37080   0.62920   0.01267  Uiso   1.00
H32    H     0.88900   0.49660   0.50340   0.01267  Uiso   1.00
H33    H     0.80020   0.71830   0.28170   0.01267  Uiso   1.00
H34    H     0.16370   0.62920   0.37080   0.01267  Uiso   1.00
C1     C     0.24428   0.73442   0.48982   0.01267  Uiso   1.00
C2     C     0.09904   0.74196   0.51596   0.01267  Uiso   1.00
C3     C     0.01330   0.82080   0.51920   0.01267  Uiso   1.00
C4     C     0.07120   0.89140   0.49880   0.01267  Uiso   1.00
C5     C     0.21730   0.88520   0.47420   0.01267  Uiso   1.00
C6     C     0.30293   0.80717   0.46897   0.01267  Uiso   1.00
C7     C     0.33863   0.64757   0.48917   0.01267  Uiso   1.00
C8     C     0.53148   0.48982   0.73442   0.01267  Uiso   1.00
C9     C     0.64304   0.51596   0.74196   0.01267  Uiso   1.00
C10    C     0.64670   0.51920   0.82080   0.01267  Uiso   1.00
C11    C     0.53860   0.49880   0.89140   0.01267  Uiso   1.00
C12    C     0.42330   0.47420   0.88520   0.01267  Uiso   1.00
C13    C     0.42093   0.46897   0.80717   0.01267  Uiso   1.00
C14    C     0.52463   0.48917   0.64757   0.01267  Uiso   1.00
C15    C     0.75572   0.26558   0.51018   0.01267  Uiso   1.00
C16    C     0.90096   0.25804   0.48404   0.01267  Uiso   1.00
C17    C     0.98670   0.17920   0.48080   0.01267  Uiso   1.00
C18    C     0.92880   0.10860   0.50120   0.01267  Uiso   1.00
C19    C     0.78270   0.11480   0.52580   0.01267  Uiso   1.00
C20    C     0.69707   0.19283   0.53103   0.01267  Uiso   1.00
C21    C     0.66137   0.35243   0.51083   0.01267  Uiso   1.00
C22    C     0.46852   0.51018   0.26558   0.01267  Uiso   1.00
C23    C     0.35696   0.48404   0.25804   0.01267  Uiso   1.00
C24    C     0.35330   0.48080   0.17920   0.01267  Uiso   1.00
C25    C     0.46140   0.50120   0.10860   0.01267  Uiso   1.00
C26    C     0.57670   0.52580   0.11480   0.01267  Uiso   1.00
C27    C     0.57907   0.53103   0.19283   0.01267  Uiso   1.00
C28    C     0.47537   0.51083   0.35243   0.01267  Uiso   1.00
C29    C     0.10190   0.39270   0.60730   0.01267  Uiso   1.00
C30    C     0.03800   0.46510   0.53490   0.01267  Uiso   1.00
C31    C     0.10100   0.26570   0.73430   0.01267  Uiso   1.00
C32    C     0.88700   0.32520   0.67480   0.01267  Uiso   1.00
C33    C     0.89810   0.60730   0.39270   0.01267  Uiso   1.00
C34    C     0.96200   0.53490   0.46510   0.01267  Uiso   1.00
C35    C     0.89900   0.73430   0.26570   0.01267  Uiso   1.00
C36    C     0.11300   0.67480   0.32520   0.01267  Uiso   1.00
N1     N     0.97182   0.96998   0.50558   0.01267  Uiso   1.00
N2     N     0.55262   0.50558   0.96998   0.01267  Uiso   1.00
N3     N     0.02818   0.03002   0.49442   0.01267  Uiso   1.00
N4     N     0.44738   0.49442   0.03002   0.01267  Uiso   1.00
N5     N     0.03300   0.33240   0.66760   0.01267  Uiso   1.00
N6     N     0.96700   0.66760   0.33240   0.01267  Uiso   1.00
O1     O     0.27962   0.58223   0.52133   0.01267  Uiso   1.00
O2     O     0.42698   0.45765   0.64719   0.01267  Uiso   1.00
O3     O     0.61682   0.52133   0.58223   0.01267  Uiso   1.00
O4     O     0.46818   0.64719   0.45765   0.01267  Uiso   1.00
O5     O     0.72038   0.41777   0.47867   0.01267  Uiso   1.00
O6     O     0.57302   0.54235   0.35281   0.01267  Uiso   1.00
O7     O     0.38318   0.47867   0.41777   0.01267  Uiso   1.00
O8     O     0.53182   0.35281   0.54235   0.01267  Uiso   1.00
O9     O     0.21750   0.39060   0.60940   0.01267  Uiso   1.00
O10    O     0.78250   0.60940   0.39060   0.01267  Uiso   1.00
Cu3    Cu    0.11240   0.96110   0.03890   0.01267  Uiso   1.00
Cu4    Cu    0.88760   0.03890   0.96110   0.01267  Uiso   1.00
H35    H     0.44180   0.96830   0.80710   0.01267  Uiso   1.00
H36    H     0.58600   0.96420   0.67420   0.01267  Uiso   1.00
H37    H     0.24260   0.03880   0.56620   0.01267  Uiso   1.00
H38    H     0.09810   0.04890   0.69710   0.01267  Uiso   1.00
H39    H     0.54150   0.94410   0.99770   0.01267  Uiso   1.00
H40    H     0.38380   0.76980   0.28840   0.01267  Uiso   1.00
H41    H     0.67870   0.76770   0.17410   0.01267  Uiso   1.00
H42    H     0.78280   0.80710   0.96830   0.01267  Uiso   1.00
H43    H     0.77560   0.67420   0.96420   0.01267  Uiso   1.00
H44    H     0.15240   0.56620   0.03880   0.01267  Uiso   1.00
H45    H     0.15590   0.69710   0.04890   0.01267  Uiso   1.00
H46    H     0.51670   0.99770   0.94410   0.01267  Uiso   1.00
H47    H     0.55800   0.28840   0.76980   0.01267  Uiso   1.00
H48    H     0.37950   0.17410   0.76770   0.01267  Uiso   1.00
H49    H     0.55820   0.03170   0.19290   0.01267  Uiso   1.00
H50    H     0.41400   0.03580   0.32580   0.01267  Uiso   1.00
H51    H     0.75740   0.96120   0.43380   0.01267  Uiso   1.00
H52    H     0.90190   0.95110   0.30290   0.01267  Uiso   1.00
H53    H     0.45850   0.05590   0.00230   0.01267  Uiso   1.00
H54    H     0.61620   0.23020   0.71160   0.01267  Uiso   1.00
H55    H     0.32130   0.23230   0.82590   0.01267  Uiso   1.00
H56    H     0.21720   0.19290   0.03170   0.01267  Uiso   1.00
H57    H     0.22440   0.32580   0.03580   0.01267  Uiso   1.00
H58    H     0.84760   0.43380   0.96120   0.01267  Uiso   1.00
H59    H     0.84410   0.30290   0.95110   0.01267  Uiso   1.00
H60    H     0.48330   0.00230   0.05590   0.01267  Uiso   1.00
H61    H     0.44200   0.71160   0.23020   0.01267  Uiso   1.00
H62    H     0.62050   0.82590   0.23230   0.01267  Uiso   1.00
H63    H     0.38900   0.00340   0.99660   0.01267  Uiso   1.00
H64    H     0.30020   0.78170   0.21830   0.01267  Uiso   1.00
H65    H     0.66370   0.87080   0.12920   0.01267  Uiso   1.00
H66    H     0.61100   0.99660   0.00340   0.01267  Uiso   1.00
H67    H     0.69980   0.21830   0.78170   0.01267  Uiso   1.00
H68    H     0.33630   0.12920   0.87080   0.01267  Uiso   1.00
C37    C     0.25572   0.01018   0.76558   0.01267  Uiso   1.00
C38    C     0.40096   0.98404   0.75804   0.01267  Uiso   1.00
C39    C     0.48670   0.98080   0.67920   0.01267  Uiso   1.00
C40    C     0.42880   0.00120   0.60860   0.01267  Uiso   1.00
C41    C     0.28270   0.02580   0.61480   0.01267  Uiso   1.00
C42    C     0.19707   0.03103   0.69283   0.01267  Uiso   1.00
C43    C     0.16137   0.01083   0.85243   0.01267  Uiso   1.00
C44    C     0.96852   0.76558   0.01018   0.01267  Uiso   1.00
C45    C     0.85696   0.75804   0.98404   0.01267  Uiso   1.00
C46    C     0.85330   0.67920   0.98080   0.01267  Uiso   1.00
C47    C     0.96140   0.60860   0.00120   0.01267  Uiso   1.00
C48    C     0.07670   0.61480   0.02580   0.01267  Uiso   1.00
C49    C     0.07907   0.69283   0.03103   0.01267  Uiso   1.00
C50    C     0.97537   0.85243   0.01083   0.01267  Uiso   1.00
C51    C     0.74428   0.98982   0.23442   0.01267  Uiso   1.00
C52    C     0.59904   0.01596   0.24196   0.01267  Uiso   1.00
C53    C     0.51330   0.01920   0.32080   0.01267  Uiso   1.00
C54    C     0.57120   0.99880   0.39140   0.01267  Uiso   1.00
C55    C     0.71730   0.97420   0.38520   0.01267  Uiso   1.00
C56    C     0.80293   0.96897   0.30717   0.01267  Uiso   1.00
C57    C     0.83863   0.98917   0.14757   0.01267  Uiso   1.00
C58    C     0.03148   0.23442   0.98982   0.01267  Uiso   1.00
C59    C     0.14304   0.24196   0.01596   0.01267  Uiso   1.00
C60    C     0.14670   0.32080   0.01920   0.01267  Uiso   1.00
C61    C     0.03860   0.39140   0.99880   0.01267  Uiso   1.00
C62    C     0.92330   0.38520   0.97420   0.01267  Uiso   1.00
C63    C     0.92093   0.30717   0.96897   0.01267  Uiso   1.00
C64    C     0.02463   0.14757   0.98917   0.01267  Uiso   1.00
C65    C     0.39810   0.89270   0.10730   0.01267  Uiso   1.00
C66    C     0.46200   0.96510   0.03490   0.01267  Uiso   1.00
C67    C     0.39900   0.76570   0.23430   0.01267  Uiso   1.00
C68    C     0.61300   0.82520   0.17480   0.01267  Uiso   1.00
C69    C     0.60190   0.10730   0.89270   0.01267  Uiso   1.00
C70    C     0.53800   0.03490   0.96510   0.01267  Uiso   1.00
C71    C     0.60100   0.23430   0.76570   0.01267  Uiso   1.00
C72    C     0.38700   0.17480   0.82520   0.01267  Uiso   1.00
N7     N     0.52818   0.99442   0.53002   0.01267  Uiso   1.00
N8     N     0.94738   0.53002   0.99442   0.01267  Uiso   1.00
N9     N     0.47182   0.00558   0.46998   0.01267  Uiso   1.00
N10    N     0.05262   0.46998   0.00558   0.01267  Uiso   1.00
N11    N     0.46700   0.83240   0.16760   0.01267  Uiso   1.00
N12    N     0.53300   0.16760   0.83240   0.01267  Uiso   1.00
O11    O     0.22038   0.97867   0.91777   0.01267  Uiso   1.00
O12    O     0.07302   0.85281   0.04235   0.01267  Uiso   1.00
O13    O     0.88318   0.91777   0.97867   0.01267  Uiso   1.00
O14    O     0.03182   0.04235   0.85281   0.01267  Uiso   1.00
O15    O     0.77962   0.02133   0.08223   0.01267  Uiso   1.00
O16    O     0.92698   0.14719   0.95765   0.01267  Uiso   1.00
O17    O     0.11682   0.08223   0.02133   0.01267  Uiso   1.00
O18    O     0.96818   0.95765   0.14719   0.01267  Uiso   1.00
O19    O     0.28250   0.89060   0.10940   0.01267  Uiso   1.00
O20    O     0.71750   0.10940   0.89060   0.01267  Uiso   1.00
