data_KUCXIP_clean
_audit_creation_date              2014-07-02
_audit_creation_method            'Materials Studio'
_symmetry_space_group_name_H-M    'P1'
_symmetry_Int_Tables_number       1
_symmetry_cell_setting            triclinic
loop_
_symmetry_equiv_pos_as_xyz
  x,y,z
_cell_length_a                    12.7270
_cell_length_b                    16.3700
_cell_length_c                    14.2630
_cell_angle_alpha                 104.6900
_cell_angle_beta                  90.0000
_cell_angle_gamma                 90.0000
loop_
_atom_site_label
_atom_site_type_symbol
_atom_site_fract_x
_atom_site_fract_y
_atom_site_fract_z
_atom_site_U_iso_or_equiv
_atom_site_adp_type
_atom_site_occupancy
Co1    Co    0.00000   0.50000   0.50000   0.01267  Uiso   1.00
Pb1    Pb    0.85850   0.43960   0.15180   0.01267  Uiso   1.00
Pb2    Pb    0.14150   0.56040   0.84820   0.01267  Uiso   1.00
C1     C     0.14500   0.52000   0.48700   0.01267  Uiso   1.00
C2     C     0.03000   0.40100   0.52500   0.01267  Uiso   1.00
C3     C     0.99300   0.45200   0.36300   0.01267  Uiso   1.00
C4     C     0.94000   0.56500   0.17200   0.01267  Uiso   1.00
C5     C     0.93200   0.32300   0.05600   0.01267  Uiso   1.00
C6     C     0.71500   0.43000   0.24000   0.01267  Uiso   1.00
C7     C     0.85500   0.48000   0.51300   0.01267  Uiso   1.00
C8     C     0.97000   0.59900   0.47500   0.01267  Uiso   1.00
C9     C     0.00700   0.54800   0.63700   0.01267  Uiso   1.00
C10    C     0.06000   0.43500   0.82800   0.01267  Uiso   1.00
C11    C     0.06800   0.67700   0.94400   0.01267  Uiso   1.00
C12    C     0.28500   0.57000   0.76000   0.01267  Uiso   1.00
N1     N     0.23100   0.53300   0.47200   0.01267  Uiso   1.00
N2     N     0.04900   0.33500   0.53600   0.01267  Uiso   1.00
N3     N     0.97600   0.42200   0.28200   0.01267  Uiso   1.00
N4     N     0.76900   0.46700   0.52800   0.01267  Uiso   1.00
N5     N     0.95100   0.66500   0.46400   0.01267  Uiso   1.00
N6     N     0.02400   0.57800   0.71800   0.01267  Uiso   1.00
Co2    Co    0.50000   0.50000   0.00000   0.01267  Uiso   1.00
Pb3    Pb    0.35850   0.56040   0.34820   0.01267  Uiso   1.00
Pb4    Pb    0.64150   0.43960   0.65180   0.01267  Uiso   1.00
C13    C     0.44000   0.43500   0.32800   0.01267  Uiso   1.00
C14    C     0.43200   0.67700   0.44400   0.01267  Uiso   1.00
C15    C     0.21500   0.57000   0.26000   0.01267  Uiso   1.00
C16    C     0.64500   0.48000   0.01300   0.01267  Uiso   1.00
C17    C     0.53000   0.59900   0.97500   0.01267  Uiso   1.00
C18    C     0.49300   0.54800   0.13700   0.01267  Uiso   1.00
C19    C     0.56000   0.56500   0.67200   0.01267  Uiso   1.00
C20    C     0.56800   0.32300   0.55600   0.01267  Uiso   1.00
C21    C     0.78500   0.43000   0.74000   0.01267  Uiso   1.00
C22    C     0.35500   0.52000   0.98700   0.01267  Uiso   1.00
C23    C     0.47000   0.40100   0.02500   0.01267  Uiso   1.00
C24    C     0.50700   0.45200   0.86300   0.01267  Uiso   1.00
N7     N     0.73100   0.46700   0.02800   0.01267  Uiso   1.00
N8     N     0.54900   0.66500   0.96400   0.01267  Uiso   1.00
N9     N     0.47600   0.57800   0.21800   0.01267  Uiso   1.00
N10    N     0.26900   0.53300   0.97200   0.01267  Uiso   1.00
N11    N     0.45100   0.33500   0.03600   0.01267  Uiso   1.00
N12    N     0.52400   0.42200   0.78200   0.01267  Uiso   1.00
Co3    Co    0.50000   0.00000   0.50000   0.01267  Uiso   1.00
C25    C     0.38200   0.06100   0.49500   0.01267  Uiso   1.00
C26    C     0.43400   0.94300   0.57700   0.01267  Uiso   1.00
C27    C     0.54500   0.08000   0.61400   0.01267  Uiso   1.00
C28    C     0.61800   0.93900   0.50500   0.01267  Uiso   1.00
C29    C     0.56600   0.05700   0.42300   0.01267  Uiso   1.00
C30    C     0.45500   0.92000   0.38600   0.01267  Uiso   1.00
N13    N     0.30100   0.09100   0.49100   0.01267  Uiso   1.00
N14    N     0.39000   0.89800   0.61500   0.01267  Uiso   1.00
N15    N     0.57000   0.12900   0.68400   0.01267  Uiso   1.00
N16    N     0.69900   0.90900   0.50900   0.01267  Uiso   1.00
N17    N     0.61000   0.10200   0.38500   0.01267  Uiso   1.00
N18    N     0.43000   0.87100   0.31600   0.01267  Uiso   1.00
Co4    Co    0.00000   0.00000   0.00000   0.01267  Uiso   1.00
C31    C     0.88200   0.93900   0.00500   0.01267  Uiso   1.00
C32    C     0.93400   0.05700   0.92300   0.01267  Uiso   1.00
C33    C     0.04500   0.92000   0.88600   0.01267  Uiso   1.00
C34    C     0.11800   0.06100   0.99500   0.01267  Uiso   1.00
C35    C     0.06600   0.94300   0.07700   0.01267  Uiso   1.00
C36    C     0.95500   0.08000   0.11400   0.01267  Uiso   1.00
N19    N     0.80100   0.90900   0.00900   0.01267  Uiso   1.00
N20    N     0.89000   0.10200   0.88500   0.01267  Uiso   1.00
N21    N     0.07000   0.87100   0.81600   0.01267  Uiso   1.00
N22    N     0.19900   0.09100   0.99100   0.01267  Uiso   1.00
N23    N     0.11000   0.89800   0.11500   0.01267  Uiso   1.00
N24    N     0.93000   0.12900   0.18400   0.01267  Uiso   1.00
