data_LAGCED_clean
_audit_creation_date              2014-07-02
_audit_creation_method            'Materials Studio'
_symmetry_space_group_name_H-M    'P1'
_symmetry_Int_Tables_number       1
_symmetry_cell_setting            triclinic
loop_
_symmetry_equiv_pos_as_xyz
  x,y,z
_cell_length_a                    15.7330
_cell_length_b                    15.7330
_cell_length_c                    16.4860
_cell_angle_alpha                 90.0000
_cell_angle_beta                  90.0000
_cell_angle_gamma                 120.0000
loop_
_atom_site_label
_atom_site_type_symbol
_atom_site_fract_x
_atom_site_fract_y
_atom_site_fract_z
_atom_site_U_iso_or_equiv
_atom_site_adp_type
_atom_site_occupancy
Zn1    Zn    0.33333   0.66666   0.82330   0.01267  Uiso   1.00
Ag1    Ag    0.85980   0.26817   0.26808   0.01267  Uiso   1.00
Ag2    Ag    0.40837   0.14020   0.26808   0.01267  Uiso   1.00
Ag3    Ag    0.73183   0.59163   0.26808   0.01267  Uiso   1.00
H1     H     0.03420   0.56660   0.78190   0.01267  Uiso   1.00
H2     H     0.16840   0.66810   0.02400   0.01267  Uiso   1.00
H3     H     0.93970   0.56940   0.87470   0.01267  Uiso   1.00
H4     H     0.07440   0.67440   0.12700   0.01267  Uiso   1.00
H5     H     0.84890   0.58490   0.97580   0.01267  Uiso   1.00
H6     H     0.20790   0.53050   0.59780   0.01267  Uiso   1.00
H7     H     0.94790   0.42040   0.71160   0.01267  Uiso   1.00
H8     H     0.12860   0.44970   0.48040   0.01267  Uiso   1.00
H9     H     0.87010   0.33450   0.59400   0.01267  Uiso   1.00
H10    H     0.53240   0.96580   0.78190   0.01267  Uiso   1.00
H11    H     0.49970   0.83160   0.02400   0.01267  Uiso   1.00
H12    H     0.62970   0.06030   0.87470   0.01267  Uiso   1.00
H13    H     0.60000   0.92560   0.12700   0.01267  Uiso   1.00
H14    H     0.73600   0.15110   0.97580   0.01267  Uiso   1.00
H15    H     0.32260   0.79210   0.59780   0.01267  Uiso   1.00
H16    H     0.47250   0.05210   0.71160   0.01267  Uiso   1.00
H17    H     0.32110   0.87140   0.48040   0.01267  Uiso   1.00
H18    H     0.46440   0.12990   0.59400   0.01267  Uiso   1.00
H19    H     0.43340   0.46760   0.78190   0.01267  Uiso   1.00
H20    H     0.33190   0.50030   0.02400   0.01267  Uiso   1.00
H21    H     0.43060   0.37030   0.87470   0.01267  Uiso   1.00
H22    H     0.32560   0.40000   0.12700   0.01267  Uiso   1.00
H23    H     0.41510   0.26400   0.97580   0.01267  Uiso   1.00
H24    H     0.46950   0.67740   0.59780   0.01267  Uiso   1.00
H25    H     0.57960   0.52750   0.71160   0.01267  Uiso   1.00
H26    H     0.55030   0.67890   0.48040   0.01267  Uiso   1.00
H27    H     0.66550   0.53560   0.59400   0.01267  Uiso   1.00
C1     C     0.14100   0.54270   0.74150   0.01267  Uiso   1.00
C2     C     0.09400   0.57280   0.79700   0.01267  Uiso   1.00
C3     C     0.13170   0.61230   0.87490   0.01267  Uiso   1.00
C4     C     0.06630   0.61910   0.93730   0.01267  Uiso   1.00
C5     C     0.10350   0.65040   0.01370   0.01267  Uiso   1.00
C6     C     0.96840   0.59320   0.92510   0.01267  Uiso   1.00
C7     C     0.04830   0.65630   0.07510   0.01267  Uiso   1.00
C8     C     0.91370   0.60200   0.98570   0.01267  Uiso   1.00
C9     C     0.95300   0.63500   0.05920   0.01267  Uiso   1.00
C10    C     0.89520   0.64040   0.12280   0.01267  Uiso   1.00
C11    C     0.08640   0.48460   0.66650   0.01267  Uiso   1.00
C12    C     0.13980   0.49210   0.59700   0.01267  Uiso   1.00
C13    C     0.98450   0.42580   0.66560   0.01267  Uiso   1.00
C14    C     0.09290   0.44340   0.52720   0.01267  Uiso   1.00
C15    C     0.93800   0.37510   0.59490   0.01267  Uiso   1.00
C16    C     0.99100   0.38450   0.52760   0.01267  Uiso   1.00
C17    C     0.94080   0.33340   0.45390   0.01267  Uiso   1.00
C18    C     0.40170   0.85900   0.74150   0.01267  Uiso   1.00
C19    C     0.47880   0.90600   0.79700   0.01267  Uiso   1.00
C20    C     0.48060   0.86830   0.87490   0.01267  Uiso   1.00
C21    C     0.55280   0.93370   0.93730   0.01267  Uiso   1.00
C22    C     0.54690   0.89650   0.01370   0.01267  Uiso   1.00
C23    C     0.62480   0.03160   0.92510   0.01267  Uiso   1.00
C24    C     0.60800   0.95170   0.07510   0.01267  Uiso   1.00
C25    C     0.68830   0.08630   0.98570   0.01267  Uiso   1.00
C26    C     0.68200   0.04700   0.05920   0.01267  Uiso   1.00
C27    C     0.74520   0.10480   0.12280   0.01267  Uiso   1.00
C28    C     0.39820   0.91360   0.66650   0.01267  Uiso   1.00
C29    C     0.35230   0.86020   0.59700   0.01267  Uiso   1.00
C30    C     0.44130   0.01550   0.66560   0.01267  Uiso   1.00
C31    C     0.35050   0.90710   0.52720   0.01267  Uiso   1.00
C32    C     0.43710   0.06200   0.59490   0.01267  Uiso   1.00
C33    C     0.39350   0.00900   0.52760   0.01267  Uiso   1.00
C34    C     0.39260   0.05920   0.45390   0.01267  Uiso   1.00
C35    C     0.45730   0.59830   0.74150   0.01267  Uiso   1.00
C36    C     0.42720   0.52120   0.79700   0.01267  Uiso   1.00
C37    C     0.38770   0.51940   0.87490   0.01267  Uiso   1.00
C38    C     0.38090   0.44720   0.93730   0.01267  Uiso   1.00
C39    C     0.34960   0.45310   0.01370   0.01267  Uiso   1.00
C40    C     0.40680   0.37520   0.92510   0.01267  Uiso   1.00
C41    C     0.34370   0.39200   0.07510   0.01267  Uiso   1.00
C42    C     0.39800   0.31170   0.98570   0.01267  Uiso   1.00
C43    C     0.36500   0.31800   0.05920   0.01267  Uiso   1.00
C44    C     0.35960   0.25480   0.12280   0.01267  Uiso   1.00
C45    C     0.51540   0.60180   0.66650   0.01267  Uiso   1.00
C46    C     0.50790   0.64770   0.59700   0.01267  Uiso   1.00
C47    C     0.57420   0.55870   0.66560   0.01267  Uiso   1.00
C48    C     0.55660   0.64950   0.52720   0.01267  Uiso   1.00
C49    C     0.62490   0.56290   0.59490   0.01267  Uiso   1.00
C50    C     0.61550   0.60650   0.52760   0.01267  Uiso   1.00
C51    C     0.66660   0.60740   0.45390   0.01267  Uiso   1.00
N1     N     0.90140   0.29470   0.39630   0.01267  Uiso   1.00
N2     N     0.84750   0.64640   0.17550   0.01267  Uiso   1.00
N3     N     0.39330   0.09860   0.39630   0.01267  Uiso   1.00
N4     N     0.79890   0.15250   0.17550   0.01267  Uiso   1.00
N5     N     0.70530   0.60670   0.39630   0.01267  Uiso   1.00
N6     N     0.35360   0.20110   0.17550   0.01267  Uiso   1.00
O1     O     0.22910   0.56000   0.74681   0.01267  Uiso   1.00
O2     O     0.21740   0.64120   0.89670   0.01267  Uiso   1.00
O3     O     0.33090   0.77090   0.74681   0.01267  Uiso   1.00
O4     O     0.42380   0.78260   0.89670   0.01267  Uiso   1.00
O5     O     0.44000   0.66910   0.74681   0.01267  Uiso   1.00
O6     O     0.35880   0.57620   0.89670   0.01267  Uiso   1.00
Zn2    Zn    0.66667   0.33334   0.17670   0.01267  Uiso   1.00
Ag4    Ag    0.14020   0.73183   0.73192   0.01267  Uiso   1.00
Ag5    Ag    0.59163   0.85980   0.73192   0.01267  Uiso   1.00
Ag6    Ag    0.26817   0.40837   0.73192   0.01267  Uiso   1.00
H28    H     0.96580   0.43340   0.21810   0.01267  Uiso   1.00
H29    H     0.83160   0.33190   0.97600   0.01267  Uiso   1.00
H30    H     0.06030   0.43060   0.12530   0.01267  Uiso   1.00
H31    H     0.92560   0.32560   0.87300   0.01267  Uiso   1.00
H32    H     0.15110   0.41510   0.02420   0.01267  Uiso   1.00
H33    H     0.79210   0.46950   0.40220   0.01267  Uiso   1.00
H34    H     0.05210   0.57960   0.28840   0.01267  Uiso   1.00
H35    H     0.87140   0.55030   0.51960   0.01267  Uiso   1.00
H36    H     0.12990   0.66550   0.40600   0.01267  Uiso   1.00
H37    H     0.46760   0.03420   0.21810   0.01267  Uiso   1.00
H38    H     0.50030   0.16840   0.97600   0.01267  Uiso   1.00
H39    H     0.37030   0.93970   0.12530   0.01267  Uiso   1.00
H40    H     0.40000   0.07440   0.87300   0.01267  Uiso   1.00
H41    H     0.26400   0.84890   0.02420   0.01267  Uiso   1.00
H42    H     0.67740   0.20790   0.40220   0.01267  Uiso   1.00
H43    H     0.52750   0.94790   0.28840   0.01267  Uiso   1.00
H44    H     0.67890   0.12860   0.51960   0.01267  Uiso   1.00
H45    H     0.53560   0.87010   0.40600   0.01267  Uiso   1.00
H46    H     0.56660   0.53240   0.21810   0.01267  Uiso   1.00
H47    H     0.66810   0.49970   0.97600   0.01267  Uiso   1.00
H48    H     0.56940   0.62970   0.12530   0.01267  Uiso   1.00
H49    H     0.67440   0.60000   0.87300   0.01267  Uiso   1.00
H50    H     0.58490   0.73600   0.02420   0.01267  Uiso   1.00
H51    H     0.53050   0.32260   0.40220   0.01267  Uiso   1.00
H52    H     0.42040   0.47250   0.28840   0.01267  Uiso   1.00
H53    H     0.44970   0.32110   0.51960   0.01267  Uiso   1.00
H54    H     0.33450   0.46440   0.40600   0.01267  Uiso   1.00
C52    C     0.85900   0.45730   0.25850   0.01267  Uiso   1.00
C53    C     0.90600   0.42720   0.20300   0.01267  Uiso   1.00
C54    C     0.86830   0.38770   0.12510   0.01267  Uiso   1.00
C55    C     0.93370   0.38090   0.06270   0.01267  Uiso   1.00
C56    C     0.89650   0.34960   0.98630   0.01267  Uiso   1.00
C57    C     0.03160   0.40680   0.07490   0.01267  Uiso   1.00
C58    C     0.95170   0.34370   0.92490   0.01267  Uiso   1.00
C59    C     0.08630   0.39800   0.01430   0.01267  Uiso   1.00
C60    C     0.04700   0.36500   0.94080   0.01267  Uiso   1.00
C61    C     0.10480   0.35960   0.87720   0.01267  Uiso   1.00
C62    C     0.91360   0.51540   0.33350   0.01267  Uiso   1.00
C63    C     0.86020   0.50790   0.40300   0.01267  Uiso   1.00
C64    C     0.01550   0.57420   0.33440   0.01267  Uiso   1.00
C65    C     0.90710   0.55660   0.47280   0.01267  Uiso   1.00
C66    C     0.06200   0.62490   0.40510   0.01267  Uiso   1.00
C67    C     0.00900   0.61550   0.47240   0.01267  Uiso   1.00
C68    C     0.05920   0.66660   0.54610   0.01267  Uiso   1.00
C69    C     0.59830   0.14100   0.25850   0.01267  Uiso   1.00
C70    C     0.52120   0.09400   0.20300   0.01267  Uiso   1.00
C71    C     0.51940   0.13170   0.12510   0.01267  Uiso   1.00
C72    C     0.44720   0.06630   0.06270   0.01267  Uiso   1.00
C73    C     0.45310   0.10350   0.98630   0.01267  Uiso   1.00
C74    C     0.37520   0.96840   0.07490   0.01267  Uiso   1.00
C75    C     0.39200   0.04830   0.92490   0.01267  Uiso   1.00
C76    C     0.31170   0.91370   0.01430   0.01267  Uiso   1.00
C77    C     0.31800   0.95300   0.94080   0.01267  Uiso   1.00
C78    C     0.25480   0.89520   0.87720   0.01267  Uiso   1.00
C79    C     0.60180   0.08640   0.33350   0.01267  Uiso   1.00
C80    C     0.64770   0.13980   0.40300   0.01267  Uiso   1.00
C81    C     0.55870   0.98450   0.33440   0.01267  Uiso   1.00
C82    C     0.64950   0.09290   0.47280   0.01267  Uiso   1.00
C83    C     0.56290   0.93800   0.40510   0.01267  Uiso   1.00
C84    C     0.60650   0.99100   0.47240   0.01267  Uiso   1.00
C85    C     0.60740   0.94080   0.54610   0.01267  Uiso   1.00
C86    C     0.54270   0.40170   0.25850   0.01267  Uiso   1.00
C87    C     0.57280   0.47880   0.20300   0.01267  Uiso   1.00
C88    C     0.61230   0.48060   0.12510   0.01267  Uiso   1.00
C89    C     0.61910   0.55280   0.06270   0.01267  Uiso   1.00
C90    C     0.65040   0.54690   0.98630   0.01267  Uiso   1.00
C91    C     0.59320   0.62480   0.07490   0.01267  Uiso   1.00
C92    C     0.65630   0.60800   0.92490   0.01267  Uiso   1.00
C93    C     0.60200   0.68830   0.01430   0.01267  Uiso   1.00
C94    C     0.63500   0.68200   0.94080   0.01267  Uiso   1.00
C95    C     0.64040   0.74520   0.87720   0.01267  Uiso   1.00
C96    C     0.48460   0.39820   0.33350   0.01267  Uiso   1.00
C97    C     0.49210   0.35230   0.40300   0.01267  Uiso   1.00
C98    C     0.42580   0.44130   0.33440   0.01267  Uiso   1.00
C99    C     0.44340   0.35050   0.47280   0.01267  Uiso   1.00
C100   C     0.37510   0.43710   0.40510   0.01267  Uiso   1.00
C101   C     0.38450   0.39350   0.47240   0.01267  Uiso   1.00
C102   C     0.33340   0.39260   0.54610   0.01267  Uiso   1.00
N7     N     0.09860   0.70530   0.60370   0.01267  Uiso   1.00
N8     N     0.15250   0.35360   0.82450   0.01267  Uiso   1.00
N9     N     0.60670   0.90140   0.60370   0.01267  Uiso   1.00
N10    N     0.20110   0.84750   0.82450   0.01267  Uiso   1.00
N11    N     0.29470   0.39330   0.60370   0.01267  Uiso   1.00
N12    N     0.64640   0.79890   0.82450   0.01267  Uiso   1.00
O7     O     0.77090   0.44000   0.25319   0.01267  Uiso   1.00
O8     O     0.78260   0.35880   0.10330   0.01267  Uiso   1.00
O9     O     0.66910   0.22910   0.25319   0.01267  Uiso   1.00
O10    O     0.57620   0.21740   0.10330   0.01267  Uiso   1.00
O11    O     0.56000   0.33090   0.25319   0.01267  Uiso   1.00
O12    O     0.64120   0.42380   0.10330   0.01267  Uiso   1.00
