data_LAGCIH_ion_b
_audit_creation_date              2014-07-02
_audit_creation_method            'Materials Studio'
_symmetry_space_group_name_H-M    'P1'
_symmetry_Int_Tables_number       1
_symmetry_cell_setting            triclinic
loop_
_symmetry_equiv_pos_as_xyz
  x,y,z
_cell_length_a                    15.4572
_cell_length_b                    15.4572
_cell_length_c                    16.4830
_cell_angle_alpha                 90.0000
_cell_angle_beta                  90.0000
_cell_angle_gamma                 120.0000
loop_
_atom_site_label
_atom_site_type_symbol
_atom_site_fract_x
_atom_site_fract_y
_atom_site_fract_z
_atom_site_U_iso_or_equiv
_atom_site_adp_type
_atom_site_occupancy
C1     C     0.86130   0.40240   0.25836   0.00000  Uiso   1.00
C2     C     0.91110   0.48120   0.20200   0.00000  Uiso   1.00
H3     H     0.97300   0.53480   0.21630   0.00000  Uiso   1.00
C4     C     0.87130   0.48280   0.12450   0.00000  Uiso   1.00
C5     C     0.93690   0.55760   0.06190   0.00000  Uiso   1.00
C6     C     0.90080   0.54430   0.98400   0.00000  Uiso   1.00
H7     H     0.83830   0.49000   0.97220   0.00000  Uiso   1.00
C8     C     0.02870   0.63720   0.07890   0.00000  Uiso   1.00
H9     H     0.05340   0.64740   0.13160   0.00000  Uiso   1.00
C10    C     0.95570   0.61000   0.92290   0.00000  Uiso   1.00
H11    H     0.93010   0.60070   0.87050   0.00000  Uiso   1.00
C12    C     0.08550   0.70320   0.01750   0.00000  Uiso   1.00
H13    H     0.14870   0.75680   0.02880   0.00000  Uiso   1.00
C14    C     0.04760   0.68850   0.94020   0.00000  Uiso   1.00
C15    C     0.10710   0.75690   0.87650   0.00000  Uiso   1.00
C16    C     0.91690   0.40110   0.33250   0.00000  Uiso   1.00
C17    C     0.86120   0.35290   0.40070   0.00000  Uiso   1.00
H18    H     0.79190   0.32280   0.39940   0.00000  Uiso   1.00
C19    C     0.01990   0.44430   0.33430   0.00000  Uiso   1.00
H20    H     0.05740   0.47690   0.28850   0.00000  Uiso   1.00
C21    C     0.90860   0.34950   0.47080   0.00000  Uiso   1.00
H22    H     0.87160   0.31820   0.51700   0.00000  Uiso   1.00
C23    C     0.06690   0.43900   0.40340   0.00000  Uiso   1.00
H24    H     0.13590   0.46640   0.40400   0.00000  Uiso   1.00
C25    C     0.01160   0.39320   0.47160   0.00000  Uiso   1.00
C26    C     0.06080   0.39030   0.54460   0.00000  Uiso   1.00
N27    N     0.10170   0.39170   0.60210   0.00000  Uiso   1.00
N28    N     0.15190   0.80850   0.82590   0.00000  Uiso   1.00
O29    O     0.77250   0.33075   0.25188   0.00000  Uiso   1.00
O30    O     0.78343   0.42346   0.10268   0.00000  Uiso   1.00
O31    O     0.04020   0.76590   0.25670   0.00000  Uiso   1.00
O32    O     0.13740   0.81480   0.37100   0.00000  Uiso   1.00
O33    O     0.20990   0.84350   0.24530   0.00000  Uiso   1.00
O34    O     0.12250   0.68460   0.29450   0.00000  Uiso   1.00
Ag35   Ag    0.86569   0.59631   0.26804   0.00000  Uiso   1.00
Cl36   Cl    0.12788   0.77810   0.29219   0.00000  Uiso   1.00
C37    C     0.59760   0.45890   0.25836   0.00000  Uiso   1.00
C38    C     0.51880   0.42990   0.20200   0.00000  Uiso   1.00
H39    H     0.46520   0.43820   0.21630   0.00000  Uiso   1.00
C40    C     0.51720   0.38850   0.12450   0.00000  Uiso   1.00
C41    C     0.44240   0.37930   0.06190   0.00000  Uiso   1.00
C42    C     0.45570   0.35650   0.98400   0.00000  Uiso   1.00
H43    H     0.51000   0.34830   0.97220   0.00000  Uiso   1.00
C44    C     0.36280   0.39150   0.07890   0.00000  Uiso   1.00
H45    H     0.35260   0.40600   0.13160   0.00000  Uiso   1.00
C46    C     0.39000   0.34570   0.92290   0.00000  Uiso   1.00
H47    H     0.39930   0.32940   0.87050   0.00000  Uiso   1.00
C48    C     0.29680   0.38230   0.01750   0.00000  Uiso   1.00
H49    H     0.24320   0.39190   0.02880   0.00000  Uiso   1.00
C50    C     0.31150   0.35910   0.94020   0.00000  Uiso   1.00
C51    C     0.24310   0.35020   0.87650   0.00000  Uiso   1.00
C52    C     0.59890   0.51580   0.33250   0.00000  Uiso   1.00
C53    C     0.64710   0.50830   0.40070   0.00000  Uiso   1.00
H54    H     0.67720   0.46910   0.39940   0.00000  Uiso   1.00
C55    C     0.55570   0.57560   0.33430   0.00000  Uiso   1.00
H56    H     0.52310   0.58050   0.28850   0.00000  Uiso   1.00
C57    C     0.65050   0.55910   0.47080   0.00000  Uiso   1.00
H58    H     0.68180   0.55340   0.51700   0.00000  Uiso   1.00
C59    C     0.56100   0.62790   0.40340   0.00000  Uiso   1.00
H60    H     0.53360   0.66950   0.40400   0.00000  Uiso   1.00
C61    C     0.60680   0.61840   0.47160   0.00000  Uiso   1.00
C62    C     0.60970   0.67050   0.54460   0.00000  Uiso   1.00
N63    N     0.60830   0.71000   0.60210   0.00000  Uiso   1.00
N64    N     0.19150   0.34340   0.82590   0.00000  Uiso   1.00
O65    O     0.66925   0.44175   0.25188   0.00000  Uiso   1.00
O66    O     0.57654   0.35997   0.10268   0.00000  Uiso   1.00
O67    O     0.23410   0.27430   0.25670   0.00000  Uiso   1.00
O68    O     0.18520   0.32260   0.37100   0.00000  Uiso   1.00
O69    O     0.15650   0.36640   0.24530   0.00000  Uiso   1.00
O70    O     0.31540   0.43790   0.29450   0.00000  Uiso   1.00
Ag71   Ag    0.40369   0.26938   0.26804   0.00000  Uiso   1.00
Cl72   Cl    0.22190   0.34978   0.29219   0.00000  Uiso   1.00
C73    C     0.54110   0.13870   0.25836   0.00000  Uiso   1.00
C74    C     0.57010   0.08890   0.20200   0.00000  Uiso   1.00
H75    H     0.56180   0.02700   0.21630   0.00000  Uiso   1.00
C76    C     0.61150   0.12870   0.12450   0.00000  Uiso   1.00
C77    C     0.62070   0.06310   0.06190   0.00000  Uiso   1.00
C78    C     0.64350   0.09920   0.98400   0.00000  Uiso   1.00
H79    H     0.65170   0.16170   0.97220   0.00000  Uiso   1.00
C80    C     0.60850   0.97130   0.07890   0.00000  Uiso   1.00
H81    H     0.59400   0.94660   0.13160   0.00000  Uiso   1.00
C82    C     0.65430   0.04430   0.92290   0.00000  Uiso   1.00
H83    H     0.67060   0.06990   0.87050   0.00000  Uiso   1.00
C84    C     0.61770   0.91450   0.01750   0.00000  Uiso   1.00
H85    H     0.60810   0.85130   0.02880   0.00000  Uiso   1.00
C86    C     0.64090   0.95240   0.94020   0.00000  Uiso   1.00
C87    C     0.64980   0.89290   0.87650   0.00000  Uiso   1.00
C88    C     0.48420   0.08310   0.33250   0.00000  Uiso   1.00
C89    C     0.49170   0.13880   0.40070   0.00000  Uiso   1.00
H90    H     0.53090   0.20810   0.39940   0.00000  Uiso   1.00
C91    C     0.42440   0.98010   0.33430   0.00000  Uiso   1.00
H92    H     0.41950   0.94260   0.28850   0.00000  Uiso   1.00
C93    C     0.44090   0.09140   0.47080   0.00000  Uiso   1.00
H94    H     0.44660   0.12840   0.51700   0.00000  Uiso   1.00
C95    C     0.37210   0.93310   0.40340   0.00000  Uiso   1.00
H96    H     0.33050   0.86410   0.40400   0.00000  Uiso   1.00
C97    C     0.38160   0.98840   0.47160   0.00000  Uiso   1.00
C98    C     0.32950   0.93920   0.54460   0.00000  Uiso   1.00
N99    N     0.29000   0.89830   0.60210   0.00000  Uiso   1.00
N100   N     0.65660   0.84810   0.82590   0.00000  Uiso   1.00
O101   O     0.55825   0.22750   0.25188   0.00000  Uiso   1.00
O102   O     0.64003   0.21657   0.10268   0.00000  Uiso   1.00
O103   O     0.72570   0.95980   0.25670   0.00000  Uiso   1.00
O104   O     0.67740   0.86260   0.37100   0.00000  Uiso   1.00
O105   O     0.63360   0.79010   0.24530   0.00000  Uiso   1.00
O106   O     0.56210   0.87750   0.29450   0.00000  Uiso   1.00
Ag107  Ag    0.73062   0.13431   0.26804   0.00000  Uiso   1.00
Cl108  Cl    0.65022   0.87212   0.29219   0.00000  Uiso   1.00
C109   C     0.13870   0.59760   0.74164   0.00000  Uiso   1.00
C110   C     0.08890   0.51880   0.79800   0.00000  Uiso   1.00
H111   H     0.02700   0.46520   0.78370   0.00000  Uiso   1.00
C112   C     0.12870   0.51720   0.87550   0.00000  Uiso   1.00
C113   C     0.06310   0.44240   0.93810   0.00000  Uiso   1.00
C114   C     0.09920   0.45570   0.01600   0.00000  Uiso   1.00
H115   H     0.16170   0.51000   0.02780   0.00000  Uiso   1.00
C116   C     0.97130   0.36280   0.92110   0.00000  Uiso   1.00
H117   H     0.94660   0.35260   0.86840   0.00000  Uiso   1.00
C118   C     0.04430   0.39000   0.07710   0.00000  Uiso   1.00
H119   H     0.06990   0.39930   0.12950   0.00000  Uiso   1.00
C120   C     0.91450   0.29680   0.98250   0.00000  Uiso   1.00
H121   H     0.85130   0.24320   0.97120   0.00000  Uiso   1.00
C122   C     0.95240   0.31150   0.05980   0.00000  Uiso   1.00
C123   C     0.89290   0.24310   0.12350   0.00000  Uiso   1.00
C124   C     0.08310   0.59890   0.66750   0.00000  Uiso   1.00
C125   C     0.13880   0.64710   0.59930   0.00000  Uiso   1.00
H126   H     0.20810   0.67720   0.60060   0.00000  Uiso   1.00
C127   C     0.98010   0.55570   0.66570   0.00000  Uiso   1.00
H128   H     0.94260   0.52310   0.71150   0.00000  Uiso   1.00
C129   C     0.09140   0.65050   0.52920   0.00000  Uiso   1.00
H130   H     0.12840   0.68180   0.48300   0.00000  Uiso   1.00
C131   C     0.93310   0.56100   0.59660   0.00000  Uiso   1.00
H132   H     0.86410   0.53360   0.59600   0.00000  Uiso   1.00
C133   C     0.98840   0.60680   0.52840   0.00000  Uiso   1.00
C134   C     0.93920   0.60970   0.45540   0.00000  Uiso   1.00
N135   N     0.89830   0.60830   0.39790   0.00000  Uiso   1.00
N136   N     0.84810   0.19150   0.17410   0.00000  Uiso   1.00
O137   O     0.22750   0.66925   0.74812   0.00000  Uiso   1.00
O138   O     0.21657   0.57654   0.89732   0.00000  Uiso   1.00
O139   O     0.95980   0.23410   0.74330   0.00000  Uiso   1.00
O140   O     0.86260   0.18520   0.62900   0.00000  Uiso   1.00
O141   O     0.79010   0.15650   0.75470   0.00000  Uiso   1.00
O142   O     0.87750   0.31540   0.70550   0.00000  Uiso   1.00
Ag143  Ag    0.13431   0.40369   0.73196   0.00000  Uiso   1.00
Cl144  Cl    0.87212   0.22190   0.70781   0.00000  Uiso   1.00
C145   C     0.40240   0.54110   0.74164   0.00000  Uiso   1.00
C146   C     0.48120   0.57010   0.79800   0.00000  Uiso   1.00
H147   H     0.53480   0.56180   0.78370   0.00000  Uiso   1.00
C148   C     0.48280   0.61150   0.87550   0.00000  Uiso   1.00
C149   C     0.55760   0.62070   0.93810   0.00000  Uiso   1.00
C150   C     0.54430   0.64350   0.01600   0.00000  Uiso   1.00
H151   H     0.49000   0.65170   0.02780   0.00000  Uiso   1.00
C152   C     0.63720   0.60850   0.92110   0.00000  Uiso   1.00
H153   H     0.64740   0.59400   0.86840   0.00000  Uiso   1.00
C154   C     0.61000   0.65430   0.07710   0.00000  Uiso   1.00
H155   H     0.60070   0.67060   0.12950   0.00000  Uiso   1.00
C156   C     0.70320   0.61770   0.98250   0.00000  Uiso   1.00
H157   H     0.75680   0.60810   0.97120   0.00000  Uiso   1.00
C158   C     0.68850   0.64090   0.05980   0.00000  Uiso   1.00
C159   C     0.75690   0.64980   0.12350   0.00000  Uiso   1.00
C160   C     0.40110   0.48420   0.66750   0.00000  Uiso   1.00
C161   C     0.35290   0.49170   0.59930   0.00000  Uiso   1.00
H162   H     0.32280   0.53090   0.60060   0.00000  Uiso   1.00
C163   C     0.44430   0.42440   0.66570   0.00000  Uiso   1.00
H164   H     0.47690   0.41950   0.71150   0.00000  Uiso   1.00
C165   C     0.34950   0.44090   0.52920   0.00000  Uiso   1.00
H166   H     0.31820   0.44660   0.48300   0.00000  Uiso   1.00
C167   C     0.43900   0.37210   0.59660   0.00000  Uiso   1.00
H168   H     0.46640   0.33050   0.59600   0.00000  Uiso   1.00
C169   C     0.39320   0.38160   0.52840   0.00000  Uiso   1.00
C170   C     0.39030   0.32950   0.45540   0.00000  Uiso   1.00
N171   N     0.39170   0.29000   0.39790   0.00000  Uiso   1.00
N172   N     0.80850   0.65660   0.17410   0.00000  Uiso   1.00
O173   O     0.33075   0.55825   0.74812   0.00000  Uiso   1.00
O174   O     0.42346   0.64003   0.89732   0.00000  Uiso   1.00
O175   O     0.76590   0.72570   0.74330   0.00000  Uiso   1.00
O176   O     0.81480   0.67740   0.62900   0.00000  Uiso   1.00
O177   O     0.84350   0.63360   0.75470   0.00000  Uiso   1.00
O178   O     0.68460   0.56210   0.70550   0.00000  Uiso   1.00
Ag179  Ag    0.59631   0.73062   0.73196   0.00000  Uiso   1.00
Cl180  Cl    0.77810   0.65022   0.70781   0.00000  Uiso   1.00
C181   C     0.45890   0.86130   0.74164   0.00000  Uiso   1.00
C182   C     0.42990   0.91110   0.79800   0.00000  Uiso   1.00
H183   H     0.43820   0.97300   0.78370   0.00000  Uiso   1.00
C184   C     0.38850   0.87130   0.87550   0.00000  Uiso   1.00
C185   C     0.37930   0.93690   0.93810   0.00000  Uiso   1.00
C186   C     0.35650   0.90080   0.01600   0.00000  Uiso   1.00
H187   H     0.34830   0.83830   0.02780   0.00000  Uiso   1.00
C188   C     0.39150   0.02870   0.92110   0.00000  Uiso   1.00
H189   H     0.40600   0.05340   0.86840   0.00000  Uiso   1.00
C190   C     0.34570   0.95570   0.07710   0.00000  Uiso   1.00
H191   H     0.32940   0.93010   0.12950   0.00000  Uiso   1.00
C192   C     0.38230   0.08550   0.98250   0.00000  Uiso   1.00
H193   H     0.39190   0.14870   0.97120   0.00000  Uiso   1.00
C194   C     0.35910   0.04760   0.05980   0.00000  Uiso   1.00
C195   C     0.35020   0.10710   0.12350   0.00000  Uiso   1.00
C196   C     0.51580   0.91690   0.66750   0.00000  Uiso   1.00
C197   C     0.50830   0.86120   0.59930   0.00000  Uiso   1.00
H198   H     0.46910   0.79190   0.60060   0.00000  Uiso   1.00
C199   C     0.57560   0.01990   0.66570   0.00000  Uiso   1.00
H200   H     0.58050   0.05740   0.71150   0.00000  Uiso   1.00
C201   C     0.55910   0.90860   0.52920   0.00000  Uiso   1.00
H202   H     0.55340   0.87160   0.48300   0.00000  Uiso   1.00
C203   C     0.62790   0.06690   0.59660   0.00000  Uiso   1.00
H204   H     0.66950   0.13590   0.59600   0.00000  Uiso   1.00
C205   C     0.61840   0.01160   0.52840   0.00000  Uiso   1.00
C206   C     0.67050   0.06080   0.45540   0.00000  Uiso   1.00
N207   N     0.71000   0.10170   0.39790   0.00000  Uiso   1.00
N208   N     0.34340   0.15190   0.17410   0.00000  Uiso   1.00
O209   O     0.44175   0.77250   0.74812   0.00000  Uiso   1.00
O210   O     0.35997   0.78343   0.89732   0.00000  Uiso   1.00
O211   O     0.27430   0.04020   0.74330   0.00000  Uiso   1.00
O212   O     0.32260   0.13740   0.62900   0.00000  Uiso   1.00
O213   O     0.36640   0.20990   0.75470   0.00000  Uiso   1.00
O214   O     0.43790   0.12250   0.70550   0.00000  Uiso   1.00
Ag215  Ag    0.26938   0.86569   0.73196   0.00000  Uiso   1.00
Cl216  Cl    0.34978   0.12788   0.70781   0.00000  Uiso   1.00
Zn217  Zn    0.66667   0.33333   0.17608   0.00000  Uiso   1.00
Zn218  Zn    0.33333   0.66667   0.82392   0.00000  Uiso   1.00
loop_
_geom_bond_atom_site_label_1
_geom_bond_atom_site_label_2
_geom_bond_distance
_geom_bond_site_symmetry_2
_ccdc_geom_bond_type
C1     C2      1.415   .     S
C1     C16     1.500   .     S
C1     O29     1.266   .     D
C2     H3      0.930   .     S
C2     C4      1.423   .     S
C2     Ag35    2.468   .     S
C4     C5      1.502   .     S
C4     O30     1.253   .     D
C5     C6      1.374   1_554 S
C5     C8      1.364   1_655 S
C6     H7      0.930   .     S
C6     C10     1.380   .     S
C6     C5      1.374   1_556 S
C8     H9      0.930   .     S
C8     C12     1.393   .     D
C8     C5      1.364   1_455 S
C10    H11     0.931   .     S
C10    C14     1.359   1_655 S
C12    H13     0.931   .     S
C12    C14     1.373   1_554 S
C14    C15     1.447   .     S
C14    C10     1.359   1_455 S
C14    C12     1.373   1_556 S
C15    N28     1.122   .     T
C16    C17     1.385   .     D
C16    C19     1.385   1_655 S
C17    H18     0.931   .     S
C17    C21     1.383   .     S
C19    H20     0.932   .     S
C19    C23     1.375   .     D
C19    C16     1.385   1_455 S
C21    H22     0.930   .     S
C21    C25     1.384   1_655 S
C23    H24     0.930   .     S
C23    C25     1.375   .     S
C25    C26     1.436   .     S
C25    C21     1.384   1_455 S
C26    N27     1.133   .     T
N27    Ag143   2.186   .     S
N28    Ag215   2.207   .     S
O29    Zn217   2.075   .     S
O30    Zn217   2.037   .     S
O31    Cl36    1.400   .     D
O32    Cl36    1.396   .     D
O33    Cl36    1.395   .     D
O34    Cl36    1.406   .     S
Ag35   N135    2.186   .     S
Ag35   N172    2.207   .     S
C37    C38     1.415   .     S
C37    C52     1.500   .     S
C37    O65     1.266   .     D
C38    H39     0.930   .     S
C38    C40     1.423   .     S
C38    Ag71    2.468   .     S
C40    C41     1.502   .     S
C40    O66     1.253   .     D
C41    C44     1.364   .     S
C41    C42     1.374   1_554 S
C42    H43     0.930   .     S
C42    C46     1.380   .     S
C42    C41     1.374   1_556 S
C44    H45     0.930   .     S
C44    C48     1.393   .     D
C46    H47     0.931   .     S
C46    C50     1.359   .     D
C48    H49     0.931   .     S
C48    C50     1.373   1_554 S
C50    C51     1.447   .     S
C50    C48     1.373   1_556 S
C51    N64     1.122   .     T
C52    C53     1.385   .     D
C52    C55     1.385   .     S
C53    H54     0.931   .     S
C53    C57     1.383   .     S
C55    H56     0.932   .     S
C55    C59     1.375   .     D
C57    H58     0.930   .     S
C57    C61     1.384   .     D
C59    H60     0.930   .     S
C59    C61     1.375   .     S
C61    C62     1.436   .     S
C62    N63     1.133   .     T
N63    Ag179   2.186   .     S
N64    Ag143   2.207   .     S
O65    Zn217   2.075   .     S
O66    Zn217   2.037   .     S
O67    Cl72    1.400   .     S
O68    Cl72    1.396   .     D
O69    Cl72    1.395   .     D
O70    Cl72    1.406   .     D
Ag71   N171    2.186   .     S
Ag71   N208    2.207   .     S
C73    C74     1.415   .     S
C73    C88     1.500   .     S
C73    O101    1.266   .     D
C74    H75     0.930   .     S
C74    C76     1.423   .     S
C74    Ag107   2.468   .     S
C76    C77     1.502   .     S
C76    O102    1.253   .     D
C77    C78     1.374   1_554 D
C77    C80     1.364   1_545 S
C78    H79     0.930   .     S
C78    C82     1.380   .     S
C78    C77     1.374   1_556 D
C80    H81     0.930   .     S
C80    C84     1.393   .     D
C80    C77     1.364   1_565 S
C82    H83     0.931   .     S
C82    C86     1.359   1_545 D
C84    H85     0.931   .     S
C84    C86     1.373   1_554 S
C86    C87     1.447   .     S
C86    C82     1.359   1_565 D
C86    C84     1.373   1_556 S
C87    N100    1.122   .     T
C88    C89     1.385   .     D
C88    C91     1.385   1_545 S
C89    H90     0.931   .     S
C89    C93     1.383   .     S
C91    H92     0.932   .     S
C91    C95     1.375   .     D
C91    C88     1.385   1_565 S
C93    H94     0.930   .     S
C93    C97     1.384   1_545 S
C95    H96     0.930   .     S
C95    C97     1.375   .     S
C97    C98     1.436   .     S
C97    C93     1.384   1_565 S
C98    N99     1.133   .     T
N99    Ag215   2.186   .     S
N100   Ag179   2.207   .     S
O101   Zn217   2.075   .     S
O102   Zn217   2.037   .     S
O103   Cl108   1.400   .     D
O104   Cl108   1.396   .     D
O105   Cl108   1.395   .     D
O106   Cl108   1.406   .     S
Ag107  N136    2.207   .     S
Ag107  N207    2.186   .     S
C109   C110    1.415   .     S
C109   C124    1.500   .     S
C109   O137    1.266   .     D
C110   H111    0.930   .     S
C110   C112    1.423   .     S
C110   Ag143   2.468   .     S
C112   C113    1.502   .     S
C112   O138    1.253   .     D
C113   C114    1.374   1_556 S
C113   C116    1.364   1_455 S
C114   H115    0.930   .     S
C114   C118    1.380   .     S
C114   C113    1.374   1_554 S
C116   H117    0.930   .     S
C116   C120    1.393   .     D
C116   C113    1.364   1_655 S
C118   H119    0.931   .     S
C118   C122    1.359   1_455 D
C120   H121    0.931   .     S
C120   C122    1.373   1_556 S
C122   C123    1.447   .     S
C122   C118    1.359   1_655 D
C122   C120    1.373   1_554 S
C123   N136    1.122   .     T
C124   C125    1.385   .     D
C124   C127    1.385   1_455 S
C125   H126    0.931   .     S
C125   C129    1.383   .     S
C127   H128    0.932   .     S
C127   C131    1.375   .     D
C127   C124    1.385   1_655 S
C129   H130    0.930   .     S
C129   C133    1.384   1_455 D
C131   H132    0.930   .     S
C131   C133    1.375   .     S
C133   C134    1.436   .     S
C133   C129    1.384   1_655 D
C134   N135    1.133   .     T
O137   Zn218   2.075   .     S
O138   Zn218   2.037   .     S
O139   Cl144   1.400   .     D
O140   Cl144   1.396   .     D
O141   Cl144   1.395   .     S
O142   Cl144   1.406   .     D
C145   C146    1.415   .     S
C145   C160    1.500   .     S
C145   O173    1.266   .     D
C146   H147    0.930   .     S
C146   C148    1.423   .     S
C146   Ag179   2.468   .     S
C148   C149    1.502   .     S
C148   O174    1.253   .     D
C149   C152    1.364   .     S
C149   C150    1.374   1_556 S
C150   H151    0.930   .     S
C150   C154    1.380   .     S
C150   C149    1.374   1_554 S
C152   H153    0.930   .     S
C152   C156    1.393   .     D
C154   H155    0.931   .     S
C154   C158    1.359   .     D
C156   H157    0.931   .     S
C156   C158    1.373   1_556 S
C158   C159    1.447   .     S
C158   C156    1.373   1_554 S
C159   N172    1.122   .     T
C160   C161    1.385   .     D
C160   C163    1.385   .     S
C161   H162    0.931   .     S
C161   C165    1.383   .     S
C163   H164    0.932   .     S
C163   C167    1.375   .     D
C165   H166    0.930   .     S
C165   C169    1.384   .     D
C167   H168    0.930   .     S
C167   C169    1.375   .     S
C169   C170    1.436   .     S
C170   N171    1.133   .     T
O173   Zn218   2.075   .     S
O174   Zn218   2.037   .     S
O175   Cl180   1.400   .     D
O176   Cl180   1.396   .     D
O177   Cl180   1.395   .     S
O178   Cl180   1.406   .     D
C181   C182    1.415   .     S
C181   C196    1.500   .     S
C181   O209    1.266   .     D
C182   H183    0.930   .     S
C182   C184    1.423   .     S
C182   Ag215   2.468   .     S
C184   C185    1.502   .     S
C184   O210    1.253   .     D
C185   C186    1.374   1_556 S
C185   C188    1.364   1_565 S
C186   H187    0.930   .     S
C186   C190    1.380   .     S
C186   C185    1.374   1_554 S
C188   H189    0.930   .     S
C188   C192    1.393   .     D
C188   C185    1.364   1_545 S
C190   H191    0.931   .     S
C190   C194    1.359   1_565 D
C192   H193    0.931   .     S
C192   C194    1.373   1_556 S
C194   C195    1.447   .     S
C194   C190    1.359   1_545 D
C194   C192    1.373   1_554 S
C195   N208    1.122   .     T
C196   C197    1.385   .     D
C196   C199    1.385   1_565 S
C197   H198    0.931   .     S
C197   C201    1.383   .     S
C199   H200    0.932   .     S
C199   C203    1.375   .     D
C199   C196    1.385   1_545 S
C201   H202    0.930   .     S
C201   C205    1.384   1_565 D
C203   H204    0.930   .     S
C203   C205    1.375   .     S
C205   C206    1.436   .     S
C205   C201    1.384   1_545 D
C206   N207    1.133   .     T
O209   Zn218   2.075   .     S
O210   Zn218   2.037   .     S
O211   Cl216   1.400   .     D
O212   Cl216   1.396   .     D
O213   Cl216   1.395   .     S
O214   Cl216   1.406   .     D
