data_LAGDOO_ion_b
_audit_creation_date              2014-07-02
_audit_creation_method            'Materials Studio'
_symmetry_space_group_name_H-M    'P1'
_symmetry_Int_Tables_number       1
_symmetry_cell_setting            triclinic
loop_
_symmetry_equiv_pos_as_xyz
  x,y,z
_cell_length_a                    15.6126
_cell_length_b                    15.6126
_cell_length_c                    16.4770
_cell_angle_alpha                 90.0000
_cell_angle_beta                  90.0000
_cell_angle_gamma                 120.0000
loop_
_atom_site_label
_atom_site_type_symbol
_atom_site_fract_x
_atom_site_fract_y
_atom_site_fract_z
_atom_site_U_iso_or_equiv
_atom_site_adp_type
_atom_site_occupancy
C1     C     0.48190   0.87610   0.12520   0.00000  Uiso   1.00
C2     C     0.48120   0.91420   0.20240   0.00000  Uiso   1.00
H3     H     0.53460   0.97490   0.21720   0.00000  Uiso   1.00
C4     C     0.40240   0.86430   0.25920   0.00000  Uiso   1.00
C5     C     0.40170   0.92010   0.33400   0.00000  Uiso   1.00
C6     C     0.35500   0.86500   0.40220   0.00000  Uiso   1.00
H7     H     0.32570   0.79650   0.40120   0.00000  Uiso   1.00
C8     C     0.44450   0.02290   0.33460   0.00000  Uiso   1.00
H9     H     0.47520   0.05940   0.28820   0.00000  Uiso   1.00
C10    C     0.35240   0.91330   0.47300   0.00000  Uiso   1.00
H11    H     0.32280   0.87740   0.51980   0.00000  Uiso   1.00
C12    C     0.44120   0.07050   0.40480   0.00000  Uiso   1.00
H13    H     0.47030   0.13900   0.40600   0.00000  Uiso   1.00
C14    C     0.39450   0.01540   0.47230   0.00000  Uiso   1.00
C15    C     0.39420   0.06590   0.54570   0.00000  Uiso   1.00
C16    C     0.55700   0.94170   0.06350   0.00000  Uiso   1.00
C17    C     0.54840   0.90550   0.98490   0.00000  Uiso   1.00
H18    H     0.49690   0.84250   0.97270   0.00000  Uiso   1.00
C19    C     0.63340   0.03520   0.07950   0.00000  Uiso   1.00
H20    H     0.64100   0.06110   0.13160   0.00000  Uiso   1.00
C21    C     0.61460   0.96090   0.92490   0.00000  Uiso   1.00
H22    H     0.60810   0.93550   0.87270   0.00000  Uiso   1.00
C23    C     0.69910   0.09110   0.01950   0.00000  Uiso   1.00
H24    H     0.75010   0.15470   0.03080   0.00000  Uiso   1.00
C25    C     0.68900   0.05250   0.94290   0.00000  Uiso   1.00
C26    C     0.75720   0.11100   0.87950   0.00000  Uiso   1.00
N27    N     0.39450   0.10450   0.60310   0.00000  Uiso   1.00
N28    N     0.80880   0.15670   0.82900   0.00000  Uiso   1.00
O29    O     0.42200   0.79000   0.10151   0.00000  Uiso   1.00
O30    O     0.33210   0.77710   0.25392   0.00000  Uiso   1.00
O31    O     0.76040   0.04240   0.25230   0.00000  Uiso   1.00
O32    O     0.83280   0.21060   0.23980   0.00000  Uiso   1.00
O33    O     0.81160   0.13900   0.36860   0.00000  Uiso   1.00
O34    O     0.67620   0.12120   0.29310   0.00000  Uiso   1.00
Ag35   Ag    0.59535   0.86723   0.26579   0.00000  Uiso   1.00
Cl36   Cl    0.77160   0.12790   0.28850   0.00000  Uiso   1.00
C37    C     0.12390   0.60580   0.12520   0.00000  Uiso   1.00
C38    C     0.08580   0.56700   0.20240   0.00000  Uiso   1.00
H39    H     0.02510   0.55970   0.21720   0.00000  Uiso   1.00
C40    C     0.13570   0.53810   0.25920   0.00000  Uiso   1.00
C41    C     0.07990   0.48160   0.33400   0.00000  Uiso   1.00
C42    C     0.13500   0.49000   0.40220   0.00000  Uiso   1.00
H43    H     0.20350   0.52920   0.40120   0.00000  Uiso   1.00
C44    C     0.97710   0.42160   0.33460   0.00000  Uiso   1.00
H45    H     0.94060   0.41580   0.28820   0.00000  Uiso   1.00
C46    C     0.08670   0.43910   0.47300   0.00000  Uiso   1.00
H47    H     0.12260   0.44540   0.51980   0.00000  Uiso   1.00
C48    C     0.92950   0.37070   0.40480   0.00000  Uiso   1.00
H49    H     0.86100   0.33130   0.40600   0.00000  Uiso   1.00
C50    C     0.98460   0.37910   0.47230   0.00000  Uiso   1.00
C51    C     0.93410   0.32830   0.54570   0.00000  Uiso   1.00
C52    C     0.05830   0.61530   0.06350   0.00000  Uiso   1.00
C53    C     0.09450   0.64290   0.98490   0.00000  Uiso   1.00
H54    H     0.15750   0.65440   0.97270   0.00000  Uiso   1.00
C55    C     0.96480   0.59820   0.07950   0.00000  Uiso   1.00
H56    H     0.93890   0.57990   0.13160   0.00000  Uiso   1.00
C57    C     0.03910   0.65370   0.92490   0.00000  Uiso   1.00
H58    H     0.06450   0.67260   0.87270   0.00000  Uiso   1.00
C59    C     0.90890   0.60800   0.01950   0.00000  Uiso   1.00
H60    H     0.84530   0.59540   0.03080   0.00000  Uiso   1.00
C61    C     0.94750   0.63650   0.94290   0.00000  Uiso   1.00
C62    C     0.88900   0.64620   0.87950   0.00000  Uiso   1.00
N63    N     0.89550   0.29000   0.60310   0.00000  Uiso   1.00
N64    N     0.84330   0.65210   0.82900   0.00000  Uiso   1.00
O65    O     0.21000   0.63200   0.10151   0.00000  Uiso   1.00
O66    O     0.22290   0.55500   0.25392   0.00000  Uiso   1.00
O67    O     0.95760   0.71800   0.25230   0.00000  Uiso   1.00
O68    O     0.78940   0.62220   0.23980   0.00000  Uiso   1.00
O69    O     0.86100   0.67260   0.36860   0.00000  Uiso   1.00
O70    O     0.87880   0.55500   0.29310   0.00000  Uiso   1.00
Ag71   Ag    0.13277   0.72812   0.26579   0.00000  Uiso   1.00
Cl72   Cl    0.87210   0.64370   0.28850   0.00000  Uiso   1.00
C73    C     0.39420   0.51810   0.12520   0.00000  Uiso   1.00
C74    C     0.43300   0.51880   0.20240   0.00000  Uiso   1.00
H75    H     0.44030   0.46540   0.21720   0.00000  Uiso   1.00
C76    C     0.46190   0.59760   0.25920   0.00000  Uiso   1.00
C77    C     0.51840   0.59830   0.33400   0.00000  Uiso   1.00
C78    C     0.51000   0.64500   0.40220   0.00000  Uiso   1.00
H79    H     0.47080   0.67430   0.40120   0.00000  Uiso   1.00
C80    C     0.57840   0.55550   0.33460   0.00000  Uiso   1.00
H81    H     0.58420   0.52480   0.28820   0.00000  Uiso   1.00
C82    C     0.56090   0.64760   0.47300   0.00000  Uiso   1.00
H83    H     0.55460   0.67720   0.51980   0.00000  Uiso   1.00
C84    C     0.62930   0.55880   0.40480   0.00000  Uiso   1.00
H85    H     0.66870   0.52970   0.40600   0.00000  Uiso   1.00
C86    C     0.62090   0.60550   0.47230   0.00000  Uiso   1.00
C87    C     0.67170   0.60580   0.54570   0.00000  Uiso   1.00
C88    C     0.38470   0.44300   0.06350   0.00000  Uiso   1.00
C89    C     0.35710   0.45160   0.98490   0.00000  Uiso   1.00
H90    H     0.34560   0.50310   0.97270   0.00000  Uiso   1.00
C91    C     0.40180   0.36660   0.07950   0.00000  Uiso   1.00
H92    H     0.42010   0.35900   0.13160   0.00000  Uiso   1.00
C93    C     0.34630   0.38540   0.92490   0.00000  Uiso   1.00
H94    H     0.32740   0.39190   0.87270   0.00000  Uiso   1.00
C95    C     0.39200   0.30090   0.01950   0.00000  Uiso   1.00
H96    H     0.40460   0.24990   0.03080   0.00000  Uiso   1.00
C97    C     0.36350   0.31100   0.94290   0.00000  Uiso   1.00
C98    C     0.35380   0.24280   0.87950   0.00000  Uiso   1.00
N99    N     0.71000   0.60550   0.60310   0.00000  Uiso   1.00
N100   N     0.34790   0.19120   0.82900   0.00000  Uiso   1.00
O101   O     0.36800   0.57800   0.10151   0.00000  Uiso   1.00
O102   O     0.44500   0.66790   0.25392   0.00000  Uiso   1.00
O103   O     0.28200   0.23960   0.25230   0.00000  Uiso   1.00
O104   O     0.37780   0.16720   0.23980   0.00000  Uiso   1.00
O105   O     0.32740   0.18840   0.36860   0.00000  Uiso   1.00
O106   O     0.44500   0.32380   0.29310   0.00000  Uiso   1.00
Ag107  Ag    0.27188   0.40465   0.26579   0.00000  Uiso   1.00
Cl108  Cl    0.35630   0.22840   0.28850   0.00000  Uiso   1.00
C109   C     0.51810   0.12390   0.87480   0.00000  Uiso   1.00
C110   C     0.51880   0.08580   0.79760   0.00000  Uiso   1.00
H111   H     0.46540   0.02510   0.78280   0.00000  Uiso   1.00
C112   C     0.59760   0.13570   0.74080   0.00000  Uiso   1.00
C113   C     0.59830   0.07990   0.66600   0.00000  Uiso   1.00
C114   C     0.64500   0.13500   0.59780   0.00000  Uiso   1.00
H115   H     0.67430   0.20350   0.59880   0.00000  Uiso   1.00
C116   C     0.55550   0.97710   0.66540   0.00000  Uiso   1.00
H117   H     0.52480   0.94060   0.71180   0.00000  Uiso   1.00
C118   C     0.64760   0.08670   0.52700   0.00000  Uiso   1.00
H119   H     0.67720   0.12260   0.48020   0.00000  Uiso   1.00
C120   C     0.55880   0.92950   0.59520   0.00000  Uiso   1.00
H121   H     0.52970   0.86100   0.59400   0.00000  Uiso   1.00
C122   C     0.60550   0.98460   0.52770   0.00000  Uiso   1.00
C123   C     0.60580   0.93410   0.45430   0.00000  Uiso   1.00
C124   C     0.44300   0.05830   0.93650   0.00000  Uiso   1.00
C125   C     0.45160   0.09450   0.01510   0.00000  Uiso   1.00
H126   H     0.50310   0.15750   0.02730   0.00000  Uiso   1.00
C127   C     0.36660   0.96480   0.92050   0.00000  Uiso   1.00
H128   H     0.35900   0.93890   0.86840   0.00000  Uiso   1.00
C129   C     0.38540   0.03910   0.07510   0.00000  Uiso   1.00
H130   H     0.39190   0.06450   0.12730   0.00000  Uiso   1.00
C131   C     0.30090   0.90890   0.98050   0.00000  Uiso   1.00
H132   H     0.24990   0.84530   0.96920   0.00000  Uiso   1.00
C133   C     0.31100   0.94750   0.05710   0.00000  Uiso   1.00
C134   C     0.24280   0.88900   0.12050   0.00000  Uiso   1.00
N135   N     0.60550   0.89550   0.39690   0.00000  Uiso   1.00
N136   N     0.19120   0.84330   0.17100   0.00000  Uiso   1.00
O137   O     0.57800   0.21000   0.89849   0.00000  Uiso   1.00
O138   O     0.66790   0.22290   0.74608   0.00000  Uiso   1.00
O139   O     0.23960   0.95760   0.74770   0.00000  Uiso   1.00
O140   O     0.16720   0.78940   0.76020   0.00000  Uiso   1.00
O141   O     0.18840   0.86100   0.63140   0.00000  Uiso   1.00
O142   O     0.32380   0.87880   0.70690   0.00000  Uiso   1.00
Ag143  Ag    0.40465   0.13277   0.73421   0.00000  Uiso   1.00
Cl144  Cl    0.22840   0.87210   0.71150   0.00000  Uiso   1.00
C145   C     0.87610   0.39420   0.87480   0.00000  Uiso   1.00
C146   C     0.91420   0.43300   0.79760   0.00000  Uiso   1.00
H147   H     0.97490   0.44030   0.78280   0.00000  Uiso   1.00
C148   C     0.86430   0.46190   0.74080   0.00000  Uiso   1.00
C149   C     0.92010   0.51840   0.66600   0.00000  Uiso   1.00
C150   C     0.86500   0.51000   0.59780   0.00000  Uiso   1.00
H151   H     0.79650   0.47080   0.59880   0.00000  Uiso   1.00
C152   C     0.02290   0.57840   0.66540   0.00000  Uiso   1.00
H153   H     0.05940   0.58420   0.71180   0.00000  Uiso   1.00
C154   C     0.91330   0.56090   0.52700   0.00000  Uiso   1.00
H155   H     0.87740   0.55460   0.48020   0.00000  Uiso   1.00
C156   C     0.07050   0.62930   0.59520   0.00000  Uiso   1.00
H157   H     0.13900   0.66870   0.59400   0.00000  Uiso   1.00
C158   C     0.01540   0.62090   0.52770   0.00000  Uiso   1.00
C159   C     0.06590   0.67170   0.45430   0.00000  Uiso   1.00
C160   C     0.94170   0.38470   0.93650   0.00000  Uiso   1.00
C161   C     0.90550   0.35710   0.01510   0.00000  Uiso   1.00
H162   H     0.84250   0.34560   0.02730   0.00000  Uiso   1.00
C163   C     0.03520   0.40180   0.92050   0.00000  Uiso   1.00
H164   H     0.06110   0.42010   0.86840   0.00000  Uiso   1.00
C165   C     0.96090   0.34630   0.07510   0.00000  Uiso   1.00
H166   H     0.93550   0.32740   0.12730   0.00000  Uiso   1.00
C167   C     0.09110   0.39200   0.98050   0.00000  Uiso   1.00
H168   H     0.15470   0.40460   0.96920   0.00000  Uiso   1.00
C169   C     0.05250   0.36350   0.05710   0.00000  Uiso   1.00
C170   C     0.11100   0.35380   0.12050   0.00000  Uiso   1.00
N171   N     0.10450   0.71000   0.39690   0.00000  Uiso   1.00
N172   N     0.15670   0.34790   0.17100   0.00000  Uiso   1.00
O173   O     0.79000   0.36800   0.89849   0.00000  Uiso   1.00
O174   O     0.77710   0.44500   0.74608   0.00000  Uiso   1.00
O175   O     0.04240   0.28200   0.74770   0.00000  Uiso   1.00
O176   O     0.21060   0.37780   0.76020   0.00000  Uiso   1.00
O177   O     0.13900   0.32740   0.63140   0.00000  Uiso   1.00
O178   O     0.12120   0.44500   0.70690   0.00000  Uiso   1.00
Ag179  Ag    0.86723   0.27188   0.73421   0.00000  Uiso   1.00
Cl180  Cl    0.12790   0.35630   0.71150   0.00000  Uiso   1.00
C181   C     0.60580   0.48190   0.87480   0.00000  Uiso   1.00
C182   C     0.56700   0.48120   0.79760   0.00000  Uiso   1.00
H183   H     0.55970   0.53460   0.78280   0.00000  Uiso   1.00
C184   C     0.53810   0.40240   0.74080   0.00000  Uiso   1.00
C185   C     0.48160   0.40170   0.66600   0.00000  Uiso   1.00
C186   C     0.49000   0.35500   0.59780   0.00000  Uiso   1.00
H187   H     0.52920   0.32570   0.59880   0.00000  Uiso   1.00
C188   C     0.42160   0.44450   0.66540   0.00000  Uiso   1.00
H189   H     0.41580   0.47520   0.71180   0.00000  Uiso   1.00
C190   C     0.43910   0.35240   0.52700   0.00000  Uiso   1.00
H191   H     0.44540   0.32280   0.48020   0.00000  Uiso   1.00
C192   C     0.37070   0.44120   0.59520   0.00000  Uiso   1.00
H193   H     0.33130   0.47030   0.59400   0.00000  Uiso   1.00
C194   C     0.37910   0.39450   0.52770   0.00000  Uiso   1.00
C195   C     0.32830   0.39420   0.45430   0.00000  Uiso   1.00
C196   C     0.61530   0.55700   0.93650   0.00000  Uiso   1.00
C197   C     0.64290   0.54840   0.01510   0.00000  Uiso   1.00
H198   H     0.65440   0.49690   0.02730   0.00000  Uiso   1.00
C199   C     0.59820   0.63340   0.92050   0.00000  Uiso   1.00
H200   H     0.57990   0.64100   0.86840   0.00000  Uiso   1.00
C201   C     0.65370   0.61460   0.07510   0.00000  Uiso   1.00
H202   H     0.67260   0.60810   0.12730   0.00000  Uiso   1.00
C203   C     0.60800   0.69910   0.98050   0.00000  Uiso   1.00
H204   H     0.59540   0.75010   0.96920   0.00000  Uiso   1.00
C205   C     0.63650   0.68900   0.05710   0.00000  Uiso   1.00
C206   C     0.64620   0.75720   0.12050   0.00000  Uiso   1.00
N207   N     0.29000   0.39450   0.39690   0.00000  Uiso   1.00
N208   N     0.65210   0.80880   0.17100   0.00000  Uiso   1.00
O209   O     0.63200   0.42200   0.89849   0.00000  Uiso   1.00
O210   O     0.55500   0.33210   0.74608   0.00000  Uiso   1.00
O211   O     0.71800   0.76040   0.74770   0.00000  Uiso   1.00
O212   O     0.62220   0.83280   0.76020   0.00000  Uiso   1.00
O213   O     0.67260   0.81160   0.63140   0.00000  Uiso   1.00
O214   O     0.55500   0.67620   0.70690   0.00000  Uiso   1.00
Ag215  Ag    0.72812   0.59535   0.73421   0.00000  Uiso   1.00
Cl216  Cl    0.64370   0.77160   0.71150   0.00000  Uiso   1.00
Cd217  Cd    0.33333   0.66667   0.17579   0.00000  Uiso   1.00
Cd218  Cd    0.66667   0.33333   0.82421   0.00000  Uiso   1.00
loop_
_geom_bond_atom_site_label_1
_geom_bond_atom_site_label_2
_geom_bond_distance
_geom_bond_site_symmetry_2
_ccdc_geom_bond_type
C1     C2      1.407   .     S
C1     C16     1.502   .     S
C1     O29     1.256   .     D
C2     H3      0.929   .     S
C2     C4      1.428   .     S
C2     Ag35    2.472   .     S
C4     C5      1.512   .     S
C4     O30     1.254   .     D
C5     C6      1.381   .     D
C5     C8      1.396   1_565 S
C6     H7      0.930   .     S
C6     C10     1.401   .     S
C8     H9      0.931   .     S
C8     C12     1.390   .     D
C8     C5      1.396   1_545 S
C10    H11     0.929   .     S
C10    C14     1.388   1_565 D
C12    H13     0.930   .     S
C12    C14     1.372   .     S
C14    C15     1.445   .     S
C14    C10     1.388   1_545 D
C15    N27     1.120   .     T
C16    C17     1.392   1_554 S
C16    C19     1.372   1_565 S
C17    H18     0.929   .     S
C17    C21     1.378   .     S
C17    C16     1.392   1_556 S
C19    H20     0.931   .     S
C19    C23     1.377   .     D
C19    C16     1.372   1_545 S
C21    H22     0.931   .     S
C21    C25     1.350   1_565 D
C23    H24     0.930   .     S
C23    C25     1.373   1_554 S
C25    C26     1.445   .     S
C25    C21     1.350   1_545 D
C25    C23     1.373   1_556 S
C26    N28     1.129   .     T
N27    Ag143   2.195   .     S
N28    Ag179   2.206   .     S
O29    Cd217   2.111   .     S
O30    Cd217   2.159   .     S
O31    Cl36    1.391   .     D
O32    Cl36    1.411   .     S
O33    Cl36    1.433   .     D
O34    Cl36    1.442   .     D
Ag35   N135    2.195   .     S
Ag35   N208    2.206   .     S
C37    C38     1.407   .     S
C37    C52     1.502   .     S
C37    O65     1.256   .     D
C38    H39     0.929   .     S
C38    C40     1.428   .     S
C38    Ag71    2.472   .     S
C40    C41     1.512   .     S
C40    O66     1.254   .     D
C41    C42     1.381   .     D
C41    C44     1.396   1_455 D
C42    H43     0.930   .     S
C42    C46     1.401   .     S
C44    H45     0.931   .     S
C44    C48     1.390   .     D
C44    C41     1.396   1_655 D
C46    H47     0.929   .     S
C46    C50     1.388   1_455 S
C48    H49     0.930   .     S
C48    C50     1.372   .     S
C50    C51     1.445   .     S
C50    C46     1.388   1_655 S
C51    N63     1.120   .     T
C52    C53     1.392   1_554 S
C52    C55     1.372   1_455 T
C53    H54     0.929   .     S
C53    C57     1.378   .     S
C53    C52     1.392   1_556 S
C55    H56     0.931   .     S
C55    C59     1.377   .     D
C55    C52     1.372   1_655 T
C57    H58     0.931   .     S
C57    C61     1.350   1_455 S
C59    H60     0.930   .     S
C59    C61     1.373   1_554 D
C61    C62     1.445   .     S
C61    C57     1.350   1_655 S
C61    C59     1.373   1_556 D
C62    N64     1.129   .     T
N63    Ag179   2.195   .     S
N64    Ag215   2.206   .     S
O65    Cd217   2.111   .     S
O66    Cd217   2.160   .     S
O67    Cl72    1.391   .     D
O68    Cl72    1.411   .     D
O69    Cl72    1.433   .     S
O70    Cl72    1.442   .     D
Ag71   N136    2.206   .     S
Ag71   N171    2.195   .     S
C73    C74     1.407   .     S
C73    C88     1.502   .     S
C73    O101    1.256   .     D
C74    H75     0.929   .     S
C74    C76     1.428   .     S
C74    Ag107   2.472   .     S
C76    C77     1.512   .     S
C76    O102    1.254   .     D
C77    C78     1.381   .     D
C77    C80     1.396   .     S
C78    H79     0.930   .     S
C78    C82     1.401   .     S
C80    H81     0.931   .     S
C80    C84     1.390   .     D
C82    H83     0.929   .     S
C82    C86     1.388   .     D
C84    H85     0.930   .     S
C84    C86     1.372   .     S
C86    C87     1.445   .     S
C87    N99     1.120   .     T
C88    C91     1.372   .     S
C88    C89     1.392   1_554 S
C89    H90     0.929   .     S
C89    C93     1.378   .     S
C89    C88     1.392   1_556 S
C91    H92     0.931   .     S
C91    C95     1.377   .     D
C93    H94     0.931   .     S
C93    C97     1.350   .     D
C95    H96     0.930   .     S
C95    C97     1.373   1_554 S
C97    C98     1.445   .     S
C97    C95     1.373   1_556 S
C98    N100    1.129   .     T
N99    Ag215   2.195   .     S
N100   Ag143   2.206   .     S
O101   Cd217   2.111   .     S
O102   Cd217   2.160   .     S
O103   Cl108   1.391   .     D
O104   Cl108   1.411   .     S
O105   Cl108   1.433   .     D
O106   Cl108   1.442   .     D
Ag107  N172    2.206   .     S
Ag107  N207    2.195   .     S
C109   C110    1.407   .     S
C109   C124    1.502   .     S
C109   O137    1.256   .     D
C110   H111    0.929   .     S
C110   C112    1.428   .     S
C110   Ag143   2.472   .     S
C112   C113    1.512   .     S
C112   O138    1.254   .     D
C113   C114    1.381   .     D
C113   C116    1.396   1_545 S
C114   H115    0.930   .     S
C114   C118    1.401   .     S
C116   H117    0.931   .     S
C116   C120    1.390   .     D
C116   C113    1.396   1_565 S
C118   H119    0.929   .     S
C118   C122    1.388   1_545 D
C120   H121    0.930   .     S
C120   C122    1.372   .     S
C122   C123    1.445   .     S
C122   C118    1.388   1_565 D
C123   N135    1.120   .     T
C124   C125    1.392   1_556 D
C124   C127    1.372   1_545 D
C125   H126    0.929   .     S
C125   C129    1.378   .     S
C125   C124    1.392   1_554 D
C127   H128    0.931   .     S
C127   C131    1.377   .     D
C127   C124    1.372   1_565 D
C129   H130    0.931   .     S
C129   C133    1.350   1_545 S
C131   H132    0.930   .     S
C131   C133    1.373   1_556 S
C133   C134    1.445   .     S
C133   C129    1.350   1_565 S
C133   C131    1.373   1_554 S
C134   N136    1.129   .     T
O137   Cd218   2.111   .     S
O138   Cd218   2.159   .     S
O139   Cl144   1.391   .     D
O140   Cl144   1.411   .     D
O141   Cl144   1.433   .     D
O142   Cl144   1.442   .     S
C145   C146    1.407   .     S
C145   C160    1.502   .     S
C145   O173    1.256   .     D
C146   H147    0.929   .     S
C146   C148    1.428   .     S
C146   Ag179   2.472   .     S
C148   C149    1.512   .     S
C148   O174    1.254   .     D
C149   C150    1.381   .     D
C149   C152    1.396   1_655 S
C150   H151    0.930   .     S
C150   C154    1.401   .     S
C152   H153    0.931   .     S
C152   C156    1.390   .     D
C152   C149    1.396   1_455 S
C154   H155    0.929   .     S
C154   C158    1.388   1_655 S
C156   H157    0.930   .     S
C156   C158    1.372   .     S
C158   C159    1.445   .     S
C158   C154    1.388   1_455 S
C159   N171    1.120   .     T
C160   C161    1.392   1_556 D
C160   C163    1.372   1_655 S
C161   H162    0.929   .     S
C161   C165    1.378   .     S
C161   C160    1.392   1_554 D
C163   H164    0.931   .     S
C163   C167    1.377   .     D
C163   C160    1.372   1_455 S
C165   H166    0.931   .     S
C165   C169    1.350   1_655 D
C167   H168    0.930   .     S
C167   C169    1.373   1_556 S
C169   C170    1.445   .     S
C169   C165    1.350   1_455 D
C169   C167    1.373   1_554 S
C170   N172    1.129   .     T
O173   Cd218   2.111   .     S
O174   Cd218   2.160   .     S
O175   Cl180   1.391   .     D
O176   Cl180   1.411   .     D
O177   Cl180   1.433   .     D
O178   Cl180   1.442   .     S
C181   C182    1.407   .     S
C181   C196    1.502   .     S
C181   O209    1.256   .     D
C182   H183    0.929   .     S
C182   C184    1.428   .     S
C182   Ag215   2.472   .     S
C184   C185    1.512   .     S
C184   O210    1.254   .     D
C185   C186    1.381   .     D
C185   C188    1.396   .     S
C186   H187    0.930   .     S
C186   C190    1.401   .     S
C188   H189    0.931   .     S
C188   C192    1.390   .     D
C190   H191    0.929   .     S
C190   C194    1.388   .     D
C192   H193    0.930   .     S
C192   C194    1.372   .     S
C194   C195    1.445   .     S
C195   N207    1.120   .     T
C196   C199    1.372   .     S
C196   C197    1.392   1_556 S
C197   H198    0.929   .     S
C197   C201    1.378   .     S
C197   C196    1.392   1_554 S
C199   H200    0.931   .     S
C199   C203    1.377   .     D
C201   H202    0.931   .     S
C201   C205    1.350   .     D
C203   H204    0.930   .     S
C203   C205    1.373   1_556 S
C205   C206    1.445   .     S
C205   C203    1.373   1_554 S
C206   N208    1.129   .     T
O209   Cd218   2.111   .     S
O210   Cd218   2.160   .     S
O211   Cl216   1.391   .     D
O212   Cl216   1.411   .     D
O213   Cl216   1.433   .     D
O214   Cl216   1.442   .     S
