data_LAGDAA_charged
_audit_creation_date              2014-07-02
_audit_creation_method            'Materials Studio'
_symmetry_space_group_name_H-M    'P1'
_symmetry_Int_Tables_number       1
_symmetry_cell_setting            triclinic
loop_
_symmetry_equiv_pos_as_xyz
  x,y,z
_cell_length_a                    15.8240
_cell_length_b                    15.8240
_cell_length_c                    16.5630
_cell_angle_alpha                 90.0000
_cell_angle_beta                  90.0000
_cell_angle_gamma                 120.0000
loop_
_atom_site_label
_atom_site_type_symbol
_atom_site_fract_x
_atom_site_fract_y
_atom_site_fract_z
_atom_site_U_iso_or_equiv
_atom_site_adp_type
_atom_site_occupancy
Cd1    Cd    0.66667   0.33334   0.82320   0.01267  Uiso   1.00
Cd2    Cd    0.33333   0.66666   0.17680   0.01267  Uiso   1.00
Ag1    Ag    0.40966   0.13931   0.73498   0.01267  Uiso   1.00
Ag2    Ag    0.72965   0.59034   0.73498   0.01267  Uiso   1.00
Ag3    Ag    0.86069   0.27035   0.73498   0.01267  Uiso   1.00
Ag4    Ag    0.59034   0.86069   0.26502   0.01267  Uiso   1.00
Ag5    Ag    0.27035   0.40966   0.26502   0.01267  Uiso   1.00
Ag6    Ag    0.13931   0.72965   0.26502   0.01267  Uiso   1.00
H1     H     0.46660   0.02450   0.78060   0.01267  Uiso   1.00
H2     H     0.36600   0.93460   0.86450   0.01267  Uiso   1.00
H3     H     0.25320   0.83880   0.96300   0.01267  Uiso   1.00
H4     H     0.38570   0.05920   0.12110   0.01267  Uiso   1.00
H5     H     0.49720   0.15170   0.02410   0.01267  Uiso   1.00
H6     H     0.66780   0.19580   0.59480   0.01267  Uiso   1.00
H7     H     0.67190   0.11630   0.47800   0.01267  Uiso   1.00
H8     H     0.52990   0.86030   0.59380   0.01267  Uiso   1.00
H9     H     0.52840   0.94100   0.71080   0.01267  Uiso   1.00
H10    H     0.55790   0.53340   0.78060   0.01267  Uiso   1.00
H11    H     0.56860   0.63400   0.86450   0.01267  Uiso   1.00
H12    H     0.58560   0.74680   0.96300   0.01267  Uiso   1.00
H13    H     0.67350   0.61430   0.12110   0.01267  Uiso   1.00
H14    H     0.65450   0.50280   0.02410   0.01267  Uiso   1.00
H15    H     0.52800   0.33220   0.59480   0.01267  Uiso   1.00
H16    H     0.44440   0.32810   0.47800   0.01267  Uiso   1.00
H17    H     0.33040   0.47010   0.59380   0.01267  Uiso   1.00
H18    H     0.41260   0.47160   0.71080   0.01267  Uiso   1.00
H19    H     0.97550   0.44210   0.78060   0.01267  Uiso   1.00
H20    H     0.06540   0.43140   0.86450   0.01267  Uiso   1.00
H21    H     0.16120   0.41440   0.96300   0.01267  Uiso   1.00
H22    H     0.94080   0.32650   0.12110   0.01267  Uiso   1.00
H23    H     0.84830   0.34550   0.02410   0.01267  Uiso   1.00
H24    H     0.80420   0.47200   0.59480   0.01267  Uiso   1.00
H25    H     0.88370   0.55560   0.47800   0.01267  Uiso   1.00
H26    H     0.13970   0.66960   0.59380   0.01267  Uiso   1.00
H27    H     0.05900   0.58740   0.71080   0.01267  Uiso   1.00
H28    H     0.53340   0.97550   0.21940   0.01267  Uiso   1.00
H29    H     0.63400   0.06540   0.13550   0.01267  Uiso   1.00
H30    H     0.74680   0.16120   0.03700   0.01267  Uiso   1.00
H31    H     0.61430   0.94080   0.87890   0.01267  Uiso   1.00
H32    H     0.50280   0.84830   0.97590   0.01267  Uiso   1.00
H33    H     0.33220   0.80420   0.40520   0.01267  Uiso   1.00
H34    H     0.32810   0.88370   0.52200   0.01267  Uiso   1.00
H35    H     0.47010   0.13970   0.40620   0.01267  Uiso   1.00
H36    H     0.47160   0.05900   0.28920   0.01267  Uiso   1.00
H37    H     0.44210   0.46660   0.21940   0.01267  Uiso   1.00
H38    H     0.43140   0.36600   0.13550   0.01267  Uiso   1.00
H39    H     0.41440   0.25320   0.03700   0.01267  Uiso   1.00
H40    H     0.32650   0.38570   0.87890   0.01267  Uiso   1.00
H41    H     0.34550   0.49720   0.97590   0.01267  Uiso   1.00
H42    H     0.47200   0.66780   0.40520   0.01267  Uiso   1.00
H43    H     0.55560   0.67190   0.52200   0.01267  Uiso   1.00
H44    H     0.66960   0.52990   0.40620   0.01267  Uiso   1.00
H45    H     0.58740   0.52840   0.28920   0.01267  Uiso   1.00
H46    H     0.02450   0.55790   0.21940   0.01267  Uiso   1.00
H47    H     0.93460   0.56860   0.13550   0.01267  Uiso   1.00
H48    H     0.83880   0.58560   0.03700   0.01267  Uiso   1.00
H49    H     0.05920   0.67350   0.87890   0.01267  Uiso   1.00
H50    H     0.15170   0.65450   0.97590   0.01267  Uiso   1.00
H51    H     0.19580   0.52800   0.40520   0.01267  Uiso   1.00
H52    H     0.11630   0.44440   0.52200   0.01267  Uiso   1.00
H53    H     0.86030   0.33040   0.40620   0.01267  Uiso   1.00
H54    H     0.94100   0.41260   0.28920   0.01267  Uiso   1.00
C1     C     0.59720   0.13200   0.73850   0.01267  Uiso   1.00
C2     C     0.52030   0.08350   0.79580   0.01267  Uiso   1.00
C3     C     0.52020   0.11900   0.87430   0.01267  Uiso   1.00
C4     C     0.44210   0.05300   0.93390   0.01267  Uiso   1.00
C5     C     0.36990   0.95970   0.91600   0.01267  Uiso   1.00
C6     C     0.30210   0.90200   0.97500   0.01267  Uiso   1.00
C7     C     0.30900   0.94040   0.05150   0.01267  Uiso   1.00
C8     C     0.38160   0.03380   0.06970   0.01267  Uiso   1.00
C9     C     0.44770   0.08910   0.01150   0.01267  Uiso   1.00
C10    C     0.24040   0.88040   0.11360   0.01267  Uiso   1.00
C11    C     0.59820   0.07550   0.66410   0.01267  Uiso   1.00
C12    C     0.64080   0.12840   0.59470   0.01267  Uiso   1.00
C13    C     0.64330   0.08110   0.52480   0.01267  Uiso   1.00
C14    C     0.60280   0.98140   0.52600   0.01267  Uiso   1.00
C15    C     0.55860   0.92790   0.59430   0.01267  Uiso   1.00
C16    C     0.55720   0.97620   0.66410   0.01267  Uiso   1.00
C17    C     0.60180   0.93090   0.45170   0.01267  Uiso   1.00
C18    C     0.53480   0.40280   0.73850   0.01267  Uiso   1.00
C19    C     0.56320   0.47970   0.79580   0.01267  Uiso   1.00
C20    C     0.59880   0.47980   0.87430   0.01267  Uiso   1.00
C21    C     0.61090   0.55790   0.93390   0.01267  Uiso   1.00
C22    C     0.58980   0.63010   0.91600   0.01267  Uiso   1.00
C23    C     0.59990   0.69790   0.97500   0.01267  Uiso   1.00
C24    C     0.63140   0.69100   0.05150   0.01267  Uiso   1.00
C25    C     0.65220   0.61840   0.06970   0.01267  Uiso   1.00
C26    C     0.64140   0.55230   0.01150   0.01267  Uiso   1.00
C27    C     0.64000   0.75960   0.11360   0.01267  Uiso   1.00
C28    C     0.47730   0.40180   0.66410   0.01267  Uiso   1.00
C29    C     0.48760   0.35920   0.59470   0.01267  Uiso   1.00
C30    C     0.43780   0.35670   0.52480   0.01267  Uiso   1.00
C31    C     0.37860   0.39720   0.52600   0.01267  Uiso   1.00
C32    C     0.36930   0.44140   0.59430   0.01267  Uiso   1.00
C33    C     0.41900   0.44280   0.66410   0.01267  Uiso   1.00
C34    C     0.32910   0.39820   0.45170   0.01267  Uiso   1.00
C35    C     0.86800   0.46520   0.73850   0.01267  Uiso   1.00
C36    C     0.91650   0.43680   0.79580   0.01267  Uiso   1.00
C37    C     0.88100   0.40120   0.87430   0.01267  Uiso   1.00
C38    C     0.94700   0.38910   0.93390   0.01267  Uiso   1.00
C39    C     0.04030   0.41020   0.91600   0.01267  Uiso   1.00
C40    C     0.09800   0.40010   0.97500   0.01267  Uiso   1.00
C41    C     0.05960   0.36860   0.05150   0.01267  Uiso   1.00
C42    C     0.96620   0.34780   0.06970   0.01267  Uiso   1.00
C43    C     0.91090   0.35860   0.01150   0.01267  Uiso   1.00
C44    C     0.11960   0.36000   0.11360   0.01267  Uiso   1.00
C45    C     0.92450   0.52270   0.66410   0.01267  Uiso   1.00
C46    C     0.87160   0.51240   0.59470   0.01267  Uiso   1.00
C47    C     0.91890   0.56220   0.52480   0.01267  Uiso   1.00
C48    C     0.01860   0.62140   0.52600   0.01267  Uiso   1.00
C49    C     0.07210   0.63070   0.59430   0.01267  Uiso   1.00
C50    C     0.02380   0.58100   0.66410   0.01267  Uiso   1.00
C51    C     0.06910   0.67090   0.45170   0.01267  Uiso   1.00
C52    C     0.40280   0.86800   0.26150   0.01267  Uiso   1.00
C53    C     0.47970   0.91650   0.20420   0.01267  Uiso   1.00
C54    C     0.47980   0.88100   0.12570   0.01267  Uiso   1.00
C55    C     0.55790   0.94700   0.06610   0.01267  Uiso   1.00
C56    C     0.63010   0.04030   0.08400   0.01267  Uiso   1.00
C57    C     0.69790   0.09800   0.02500   0.01267  Uiso   1.00
C58    C     0.69100   0.05960   0.94850   0.01267  Uiso   1.00
C59    C     0.61840   0.96620   0.93030   0.01267  Uiso   1.00
C60    C     0.55230   0.91090   0.98850   0.01267  Uiso   1.00
C61    C     0.75960   0.11960   0.88640   0.01267  Uiso   1.00
C62    C     0.40180   0.92450   0.33590   0.01267  Uiso   1.00
C63    C     0.35920   0.87160   0.40530   0.01267  Uiso   1.00
C64    C     0.35670   0.91890   0.47520   0.01267  Uiso   1.00
C65    C     0.39720   0.01860   0.47400   0.01267  Uiso   1.00
C66    C     0.44140   0.07210   0.40570   0.01267  Uiso   1.00
C67    C     0.44280   0.02380   0.33590   0.01267  Uiso   1.00
C68    C     0.39820   0.06910   0.54830   0.01267  Uiso   1.00
C69    C     0.46520   0.59720   0.26150   0.01267  Uiso   1.00
C70    C     0.43680   0.52030   0.20420   0.01267  Uiso   1.00
C71    C     0.40120   0.52020   0.12570   0.01267  Uiso   1.00
C72    C     0.38910   0.44210   0.06610   0.01267  Uiso   1.00
C73    C     0.41020   0.36990   0.08400   0.01267  Uiso   1.00
C74    C     0.40010   0.30210   0.02500   0.01267  Uiso   1.00
C75    C     0.36860   0.30900   0.94850   0.01267  Uiso   1.00
C76    C     0.34780   0.38160   0.93030   0.01267  Uiso   1.00
C77    C     0.35860   0.44770   0.98850   0.01267  Uiso   1.00
C78    C     0.36000   0.24040   0.88640   0.01267  Uiso   1.00
C79    C     0.52270   0.59820   0.33590   0.01267  Uiso   1.00
C80    C     0.51240   0.64080   0.40530   0.01267  Uiso   1.00
C81    C     0.56220   0.64330   0.47520   0.01267  Uiso   1.00
C82    C     0.62140   0.60280   0.47400   0.01267  Uiso   1.00
C83    C     0.63070   0.55860   0.40570   0.01267  Uiso   1.00
C84    C     0.58100   0.55720   0.33590   0.01267  Uiso   1.00
C85    C     0.67090   0.60180   0.54830   0.01267  Uiso   1.00
C86    C     0.13200   0.53480   0.26150   0.01267  Uiso   1.00
C87    C     0.08350   0.56320   0.20420   0.01267  Uiso   1.00
C88    C     0.11900   0.59880   0.12570   0.01267  Uiso   1.00
C89    C     0.05300   0.61090   0.06610   0.01267  Uiso   1.00
C90    C     0.95970   0.58980   0.08400   0.01267  Uiso   1.00
C91    C     0.90200   0.59990   0.02500   0.01267  Uiso   1.00
C92    C     0.94040   0.63140   0.94850   0.01267  Uiso   1.00
C93    C     0.03380   0.65220   0.93030   0.01267  Uiso   1.00
C94    C     0.08910   0.64140   0.98850   0.01267  Uiso   1.00
C95    C     0.88040   0.64000   0.88640   0.01267  Uiso   1.00
C96    C     0.07550   0.47730   0.33590   0.01267  Uiso   1.00
C97    C     0.12840   0.48760   0.40530   0.01267  Uiso   1.00
C98    C     0.08110   0.43780   0.47520   0.01267  Uiso   1.00
C99    C     0.98140   0.37860   0.47400   0.01267  Uiso   1.00
C100   C     0.92790   0.36930   0.40570   0.01267  Uiso   1.00
C101   C     0.97620   0.41900   0.33590   0.01267  Uiso   1.00
C102   C     0.93090   0.32910   0.54830   0.01267  Uiso   1.00
N1     N     0.60220   0.89400   0.39420   0.01267  Uiso   1.00
N2     N     0.18940   0.83410   0.16440   0.01267  Uiso   1.00
N3     N     0.29180   0.39780   0.39420   0.01267  Uiso   1.00
N4     N     0.64470   0.81060   0.16440   0.01267  Uiso   1.00
N5     N     0.10600   0.70820   0.39420   0.01267  Uiso   1.00
N6     N     0.16590   0.35530   0.16440   0.01267  Uiso   1.00
N7     N     0.39780   0.10600   0.60580   0.01267  Uiso   1.00
N8     N     0.81060   0.16590   0.83560   0.01267  Uiso   1.00
N9     N     0.70820   0.60220   0.60580   0.01267  Uiso   1.00
N10    N     0.35530   0.18940   0.83560   0.01267  Uiso   1.00
N11    N     0.89400   0.29180   0.60580   0.01267  Uiso   1.00
N12    N     0.83410   0.64470   0.83560   0.01267  Uiso   1.00
O1     O     0.66720   0.21760   0.74340   0.01267  Uiso   1.00
O2     O     0.58020   0.20210   0.90000   0.01267  Uiso   1.00
O3     O     0.55040   0.33280   0.74340   0.01267  Uiso   1.00
O4     O     0.62190   0.41980   0.90000   0.01267  Uiso   1.00
O5     O     0.78240   0.44960   0.74340   0.01267  Uiso   1.00
O6     O     0.79790   0.37810   0.90000   0.01267  Uiso   1.00
O7     O     0.33280   0.78240   0.25660   0.01267  Uiso   1.00
O8     O     0.41980   0.79790   0.10000   0.01267  Uiso   1.00
O9     O     0.44960   0.66720   0.25660   0.01267  Uiso   1.00
O10    O     0.37810   0.58020   0.10000   0.01267  Uiso   1.00
O11    O     0.21760   0.55040   0.25660   0.01267  Uiso   1.00
O12    O     0.20210   0.62190   0.10000   0.01267  Uiso   1.00
Cl1    Cl    0.23260   0.87200   0.71560   0.01267  Uiso   1.00
O13    O     0.24650   0.96030   0.75100   0.01267  Uiso   1.00
O14    O     0.19450   0.86280   0.63590   0.01267  Uiso   1.00
O15    O     0.16540   0.79090   0.76340   0.01267  Uiso   1.00
O16    O     0.32390   0.87390   0.71240   0.01267  Uiso   1.00
Cl2    Cl    0.63940   0.76740   0.71560   0.01267  Uiso   1.00
O17    O     0.71380   0.75350   0.75100   0.01267  Uiso   1.00
O18    O     0.66830   0.80550   0.63590   0.01267  Uiso   1.00
O19    O     0.62550   0.83460   0.76340   0.01267  Uiso   1.00
O20    O     0.55000   0.67610   0.71240   0.01267  Uiso   1.00
Cl3    Cl    0.12800   0.36060   0.71560   0.01267  Uiso   1.00
O21    O     0.03970   0.28620   0.75100   0.01267  Uiso   1.00
O22    O     0.13720   0.33170   0.63590   0.01267  Uiso   1.00
O23    O     0.20910   0.37450   0.76340   0.01267  Uiso   1.00
O24    O     0.12610   0.45000   0.71240   0.01267  Uiso   1.00
Cl4    Cl    0.76740   0.12800   0.28440   0.01267  Uiso   1.00
O25    O     0.75350   0.03970   0.24900   0.01267  Uiso   1.00
O26    O     0.80550   0.13720   0.36410   0.01267  Uiso   1.00
O27    O     0.83460   0.20910   0.23660   0.01267  Uiso   1.00
O28    O     0.67610   0.12610   0.28760   0.01267  Uiso   1.00
Cl5    Cl    0.36060   0.23260   0.28440   0.01267  Uiso   1.00
O29    O     0.28620   0.24650   0.24900   0.01267  Uiso   1.00
O30    O     0.33170   0.19450   0.36410   0.01267  Uiso   1.00
O31    O     0.37450   0.16540   0.23660   0.01267  Uiso   1.00
O32    O     0.45000   0.32390   0.28760   0.01267  Uiso   1.00
Cl6    Cl    0.87200   0.63940   0.28440   0.01267  Uiso   1.00
O33    O     0.96030   0.71380   0.24900   0.01267  Uiso   1.00
O34    O     0.86280   0.66830   0.36410   0.01267  Uiso   1.00
O35    O     0.79090   0.62550   0.23660   0.01267  Uiso   1.00
O36    O     0.87390   0.55000   0.28760   0.01267  Uiso   1.00
Cl7    Cl    0.66667   0.33334   0.41530   0.01267  Uiso   1.00
O37    O     0.74280   0.42300   0.38490   0.01267  Uiso   1.00
O38    O     0.68020   0.25720   0.38490   0.01267  Uiso   1.00
O39    O     0.57700   0.31980   0.38490   0.01267  Uiso   1.00
O40    O     0.66667   0.33334   0.50110   0.01267  Uiso   1.00
Cl8    Cl    0.33333   0.66666   0.58470   0.01267  Uiso   1.00
O41    O     0.25720   0.57700   0.61510   0.01267  Uiso   1.00
O42    O     0.31980   0.74280   0.61510   0.01267  Uiso   1.00
O43    O     0.42300   0.68020   0.61510   0.01267  Uiso   1.00
O44    O     0.33333   0.66666   0.49890   0.01267  Uiso   1.00
