data_LALYOO_clean
_audit_creation_date              2014-07-02
_audit_creation_method            'Materials Studio'
_symmetry_space_group_name_H-M    'P1'
_symmetry_Int_Tables_number       1
_symmetry_cell_setting            triclinic
loop_
_symmetry_equiv_pos_as_xyz
  x,y,z
_cell_length_a                    8.5449
_cell_length_b                    14.7705
_cell_length_c                    14.7705
_cell_angle_alpha                 63.6265
_cell_angle_beta                  78.8816
_cell_angle_gamma                 101.1180
loop_
_atom_site_label
_atom_site_type_symbol
_atom_site_fract_x
_atom_site_fract_y
_atom_site_fract_z
_atom_site_U_iso_or_equiv
_atom_site_adp_type
_atom_site_occupancy
Cd1    Cd    0.99428   0.67926   0.57351   0.01267  Uiso   1.00
Cd2    Cd    0.56779   0.57351   0.74723   0.01267  Uiso   1.00
Cd3    Cd    0.31502   0.74723   0.67926   0.01267  Uiso   1.00
Cd4    Cd    0.06779   0.25277   0.42649   0.01267  Uiso   1.00
Cd5    Cd    0.81502   0.32074   0.25277   0.01267  Uiso   1.00
Cd6    Cd    0.49428   0.42649   0.32074   0.01267  Uiso   1.00
H1     H     0.91900   0.46110   0.00080   0.01267  Uiso   1.00
H2     H     0.99410   0.45820   0.84550   0.01267  Uiso   1.00
H3     H     0.00510   0.16360   0.01140   0.01267  Uiso   1.00
H4     H     0.90950   0.16850   0.16240   0.01267  Uiso   1.00
H5     H     0.11980   0.42890   0.62390   0.01267  Uiso   1.00
H6     H     0.98500   0.44050   0.70270   0.01267  Uiso   1.00
H7     H     0.91980   0.00080   0.53810   0.01267  Uiso   1.00
H8     H     0.83960   0.84550   0.69630   0.01267  Uiso   1.00
H9     H     0.01650   0.01140   0.82500   0.01267  Uiso   1.00
H10    H     0.07190   0.16240   0.66910   0.01267  Uiso   1.00
H11    H     0.74370   0.62390   0.94720   0.01267  Uiso   1.00
H12    H     0.68770   0.70270   0.85680   0.01267  Uiso   1.00
H13    H     0.45790   0.53810   0.46110   0.01267  Uiso   1.00
H14    H     0.53590   0.69630   0.45820   0.01267  Uiso   1.00
H15    H     0.84150   0.82500   0.16360   0.01267  Uiso   1.00
H16    H     0.74100   0.66910   0.16850   0.01267  Uiso   1.00
H17    H     0.69090   0.94720   0.42890   0.01267  Uiso   1.00
H18    H     0.54450   0.85680   0.44050   0.01267  Uiso   1.00
H19    H     0.41980   0.46190   0.99920   0.01267  Uiso   1.00
H20    H     0.33960   0.30370   0.15450   0.01267  Uiso   1.00
H21    H     0.51650   0.17500   0.98860   0.01267  Uiso   1.00
H22    H     0.57190   0.33090   0.83760   0.01267  Uiso   1.00
H23    H     0.24370   0.05280   0.37610   0.01267  Uiso   1.00
H24    H     0.18770   0.14320   0.29730   0.01267  Uiso   1.00
H25    H     0.95790   0.53890   0.46190   0.01267  Uiso   1.00
H26    H     0.03590   0.54180   0.30370   0.01267  Uiso   1.00
H27    H     0.34150   0.83640   0.17500   0.01267  Uiso   1.00
H28    H     0.24100   0.83150   0.33090   0.01267  Uiso   1.00
H29    H     0.19090   0.57110   0.05280   0.01267  Uiso   1.00
H30    H     0.04450   0.55950   0.14320   0.01267  Uiso   1.00
H31    H     0.41900   0.99920   0.53890   0.01267  Uiso   1.00
H32    H     0.49410   0.15450   0.54180   0.01267  Uiso   1.00
H33    H     0.50510   0.98860   0.83640   0.01267  Uiso   1.00
H34    H     0.40950   0.83760   0.83150   0.01267  Uiso   1.00
H35    H     0.61980   0.37610   0.57110   0.01267  Uiso   1.00
H36    H     0.48500   0.29730   0.55950   0.01267  Uiso   1.00
C1     C     0.93450   0.39940   0.00330   0.01267  Uiso   1.00
C2     C     0.98060   0.39840   0.90960   0.01267  Uiso   1.00
C3     C     0.00700   0.31030   0.91000   0.01267  Uiso   1.00
C4     C     0.98440   0.22460   0.00730   0.01267  Uiso   1.00
C5     C     0.93200   0.22910   0.09730   0.01267  Uiso   1.00
C6     C     0.09290   0.42850   0.69100   0.01267  Uiso   1.00
C7     C     0.22340   0.51910   0.68110   0.01267  Uiso   1.00
C8     C     0.93780   0.00330   0.59730   0.01267  Uiso   1.00
C9     C     0.89020   0.90960   0.69200   0.01267  Uiso   1.00
C10    C     0.91700   0.91000   0.77970   0.01267  Uiso   1.00
C11    C     0.99170   0.00730   0.76810   0.01267  Uiso   1.00
C12    C     0.02930   0.09730   0.67360   0.01267  Uiso   1.00
C13    C     0.78390   0.69100   0.88050   0.01267  Uiso   1.00
C14    C     0.90450   0.68110   0.79980   0.01267  Uiso   1.00
C15    C     0.53510   0.59730   0.39940   0.01267  Uiso   1.00
C16    C     0.58220   0.69200   0.39840   0.01267  Uiso   1.00
C17    C     0.69670   0.77970   0.31030   0.01267  Uiso   1.00
C18    C     0.75980   0.76810   0.22460   0.01267  Uiso   1.00
C19    C     0.70290   0.67360   0.22910   0.01267  Uiso   1.00
C20    C     0.66440   0.88050   0.42850   0.01267  Uiso   1.00
C21    C     0.70430   0.79980   0.51910   0.01267  Uiso   1.00
C22    C     0.43780   0.40270   0.99670   0.01267  Uiso   1.00
C23    C     0.39020   0.30800   0.09040   0.01267  Uiso   1.00
C24    C     0.41700   0.22030   0.09000   0.01267  Uiso   1.00
C25    C     0.49170   0.23190   0.99270   0.01267  Uiso   1.00
C26    C     0.52930   0.32640   0.90270   0.01267  Uiso   1.00
C27    C     0.28390   0.11950   0.30900   0.01267  Uiso   1.00
C28    C     0.40450   0.20020   0.31890   0.01267  Uiso   1.00
C29    C     0.03510   0.60060   0.40270   0.01267  Uiso   1.00
C30    C     0.08220   0.60160   0.30800   0.01267  Uiso   1.00
C31    C     0.19670   0.68970   0.22030   0.01267  Uiso   1.00
C32    C     0.25980   0.77540   0.23190   0.01267  Uiso   1.00
C33    C     0.20290   0.77090   0.32640   0.01267  Uiso   1.00
C34    C     0.16440   0.57150   0.11950   0.01267  Uiso   1.00
C35    C     0.20430   0.48090   0.20020   0.01267  Uiso   1.00
C36    C     0.43450   0.99670   0.60060   0.01267  Uiso   1.00
C37    C     0.48060   0.09040   0.60160   0.01267  Uiso   1.00
C38    C     0.50700   0.09000   0.68970   0.01267  Uiso   1.00
C39    C     0.48440   0.99270   0.77540   0.01267  Uiso   1.00
C40    C     0.43200   0.90270   0.77090   0.01267  Uiso   1.00
C41    C     0.59290   0.30900   0.57150   0.01267  Uiso   1.00
C42    C     0.72340   0.31890   0.48090   0.01267  Uiso   1.00
S1     S     0.07247   0.29976   0.79515   0.01267  Uiso   1.00
S2     S     0.86762   0.79515   0.90509   0.01267  Uiso   1.00
S3     S     0.77271   0.90509   0.29976   0.01267  Uiso   1.00
S4     S     0.36762   0.09491   0.20485   0.01267  Uiso   1.00
S5     S     0.27271   0.70024   0.09491   0.01267  Uiso   1.00
S6     S     0.57247   0.20485   0.70024   0.01267  Uiso   1.00
N1     N     0.91100   0.31680   0.09710   0.01267  Uiso   1.00
N2     N     0.00810   0.09710   0.58610   0.01267  Uiso   1.00
N3     N     0.59420   0.58610   0.31680   0.01267  Uiso   1.00
N4     N     0.50810   0.41390   0.90290   0.01267  Uiso   1.00
N5     N     0.09420   0.68320   0.41390   0.01267  Uiso   1.00
N6     N     0.41100   0.90290   0.68320   0.01267  Uiso   1.00
Cl1    Cl    0.74079   0.51681   0.63204   0.01267  Uiso   1.00
Cl2    Cl    0.37283   0.63204   0.85115   0.01267  Uiso   1.00
Cl3    Cl    0.22398   0.85115   0.51681   0.01267  Uiso   1.00
Cl4    Cl    0.87283   0.14885   0.36796   0.01267  Uiso   1.00
Cl5    Cl    0.72398   0.48319   0.14885   0.01267  Uiso   1.00
Cl6    Cl    0.24079   0.36796   0.48319   0.01267  Uiso   1.00
O1     O     0.19500   0.60880   0.64930   0.01267  Uiso   1.00
O2     O     0.35020   0.50460   0.70260   0.01267  Uiso   1.00
O3     O     0.84430   0.64930   0.74190   0.01267  Uiso   1.00
O4     O     0.05280   0.70260   0.79280   0.01267  Uiso   1.00
O5     O     0.58620   0.74190   0.60880   0.01267  Uiso   1.00
O6     O     0.84560   0.79280   0.50460   0.01267  Uiso   1.00
O7     O     0.34430   0.25810   0.35070   0.01267  Uiso   1.00
O8     O     0.55280   0.20720   0.29740   0.01267  Uiso   1.00
O9     O     0.08620   0.39120   0.25810   0.01267  Uiso   1.00
O10    O     0.34560   0.49540   0.20720   0.01267  Uiso   1.00
O11    O     0.69500   0.35070   0.39120   0.01267  Uiso   1.00
O12    O     0.85020   0.29740   0.49540   0.01267  Uiso   1.00
