data_LETPUX_clean
_audit_creation_date              2014-07-02
_audit_creation_method            'Materials Studio'
_symmetry_space_group_name_H-M    'P1'
_symmetry_Int_Tables_number       1
_symmetry_cell_setting            triclinic
loop_
_symmetry_equiv_pos_as_xyz
  x,y,z
_cell_length_a                    9.9998
_cell_length_b                    34.5824
_cell_length_c                    34.5824
_cell_angle_alpha                 88.8023
_cell_angle_beta                  81.6874
_cell_angle_gamma                 81.6871
loop_
_atom_site_label
_atom_site_type_symbol
_atom_site_fract_x
_atom_site_fract_y
_atom_site_fract_z
_atom_site_U_iso_or_equiv
_atom_site_adp_type
_atom_site_occupancy
Zn1    Zn    0.29756   0.89285   0.85699   0.01267  Uiso   1.00
Zn2    Zn    0.39109   0.91660   0.96081   0.01267  Uiso   1.00
Zn3    Zn    0.04740   0.60715   0.64301   0.01267  Uiso   1.00
Zn4    Zn    0.26851   0.58340   0.53919   0.01267  Uiso   1.00
Zn5    Zn    0.65455   0.64301   0.89285   0.01267  Uiso   1.00
Zn6    Zn    0.85191   0.53918   0.91660   0.01267  Uiso   1.00
Zn7    Zn    0.19041   0.85699   0.60715   0.01267  Uiso   1.00
Zn8    Zn    0.30769   0.96082   0.58340   0.01267  Uiso   1.00
Zn9    Zn    0.70244   0.64301   0.60715   0.01267  Uiso   1.00
Zn10   Zn    0.60891   0.53918   0.58340   0.01267  Uiso   1.00
Zn11   Zn    0.95260   0.85699   0.89285   0.01267  Uiso   1.00
Zn12   Zn    0.73149   0.96082   0.91660   0.01267  Uiso   1.00
Zn13   Zn    0.34545   0.60715   0.85699   0.01267  Uiso   1.00
Zn14   Zn    0.14809   0.58340   0.96081   0.01267  Uiso   1.00
Zn15   Zn    0.80959   0.89285   0.64301   0.01267  Uiso   1.00
Zn16   Zn    0.69231   0.91660   0.53919   0.01267  Uiso   1.00
Zn17   Zn    0.70244   0.10715   0.14301   0.01267  Uiso   1.00
Zn18   Zn    0.60891   0.08340   0.03919   0.01267  Uiso   1.00
Zn19   Zn    0.95260   0.39285   0.35699   0.01267  Uiso   1.00
Zn20   Zn    0.73149   0.41660   0.46081   0.01267  Uiso   1.00
Zn21   Zn    0.34545   0.35699   0.10715   0.01267  Uiso   1.00
Zn22   Zn    0.14809   0.46082   0.08340   0.01267  Uiso   1.00
Zn23   Zn    0.80959   0.14301   0.39285   0.01267  Uiso   1.00
Zn24   Zn    0.69231   0.03918   0.41660   0.01267  Uiso   1.00
Zn25   Zn    0.29756   0.35699   0.39285   0.01267  Uiso   1.00
Zn26   Zn    0.39109   0.46082   0.41660   0.01267  Uiso   1.00
Zn27   Zn    0.04740   0.14301   0.10715   0.01267  Uiso   1.00
Zn28   Zn    0.26851   0.03918   0.08340   0.01267  Uiso   1.00
Zn29   Zn    0.65455   0.39285   0.14301   0.01267  Uiso   1.00
Zn30   Zn    0.85191   0.41660   0.03919   0.01267  Uiso   1.00
Zn31   Zn    0.19041   0.10715   0.35699   0.01267  Uiso   1.00
Zn32   Zn    0.30769   0.08340   0.46081   0.01267  Uiso   1.00
Zn33   Zn    0.00000   0.00000   0.00000   0.01267  Uiso   1.00
Zn34   Zn    0.00000   0.50000   0.50000   0.01267  Uiso   1.00
Zn35   Zn    0.50000   0.50000   0.00000   0.01267  Uiso   1.00
Zn36   Zn    0.00000   0.00000   0.50000   0.01267  Uiso   1.00
Ga1    Ga    0.50000   0.78710   0.71290   0.01267  Uiso   1.00
Ga2    Ga    0.00000   0.71290   0.78710   0.01267  Uiso   1.00
Ga3    Ga    0.71290   0.78710   0.78710   0.01267  Uiso   1.00
Ga4    Ga    0.28710   0.71290   0.71290   0.01267  Uiso   1.00
Ga5    Ga    0.50000   0.21290   0.28710   0.01267  Uiso   1.00
Ga6    Ga    0.00000   0.28710   0.21290   0.01267  Uiso   1.00
Ga7    Ga    0.28710   0.21290   0.21290   0.01267  Uiso   1.00
Ga8    Ga    0.71290   0.28710   0.28710   0.01267  Uiso   1.00
P1     P     0.40729   0.82651   0.79519   0.01267  Uiso   1.00
P2     P     0.20062   0.86130   0.93952   0.01267  Uiso   1.00
P3     P     0.47441   0.95355   0.87837   0.01267  Uiso   1.00
P4     P     0.02899   0.67349   0.70481   0.01267  Uiso   1.00
P5     P     0.00144   0.63870   0.56048   0.01267  Uiso   1.00
P6     P     0.30633   0.54645   0.62163   0.01267  Uiso   1.00
P7     P     0.70248   0.70481   0.82651   0.01267  Uiso   1.00
P8     P     0.64014   0.56048   0.86130   0.01267  Uiso   1.00
P9     P     0.85278   0.62163   0.95355   0.01267  Uiso   1.00
P10    P     0.23380   0.79519   0.67349   0.01267  Uiso   1.00
P11    P     0.06192   0.93952   0.63870   0.01267  Uiso   1.00
P12    P     0.42796   0.87837   0.54645   0.01267  Uiso   1.00
P13    P     0.59271   0.70481   0.67349   0.01267  Uiso   1.00
P14    P     0.79938   0.56048   0.63870   0.01267  Uiso   1.00
P15    P     0.52559   0.62163   0.54645   0.01267  Uiso   1.00
P16    P     0.97101   0.79519   0.82652   0.01267  Uiso   1.00
P17    P     0.99856   0.93952   0.86130   0.01267  Uiso   1.00
P18    P     0.69367   0.87837   0.95355   0.01267  Uiso   1.00
P19    P     0.29752   0.67349   0.79519   0.01267  Uiso   1.00
P20    P     0.35986   0.63870   0.93952   0.01267  Uiso   1.00
P21    P     0.14722   0.54645   0.87837   0.01267  Uiso   1.00
P22    P     0.76620   0.82651   0.70481   0.01267  Uiso   1.00
P23    P     0.93808   0.86130   0.56048   0.01267  Uiso   1.00
P24    P     0.57204   0.95355   0.62163   0.01267  Uiso   1.00
P25    P     0.59271   0.17349   0.20481   0.01267  Uiso   1.00
P26    P     0.79938   0.13870   0.06048   0.01267  Uiso   1.00
P27    P     0.52559   0.04645   0.12163   0.01267  Uiso   1.00
P28    P     0.97101   0.32651   0.29519   0.01267  Uiso   1.00
P29    P     0.99856   0.36130   0.43952   0.01267  Uiso   1.00
P30    P     0.69367   0.45355   0.37837   0.01267  Uiso   1.00
P31    P     0.29752   0.29519   0.17349   0.01267  Uiso   1.00
P32    P     0.35986   0.43952   0.13870   0.01267  Uiso   1.00
P33    P     0.14722   0.37837   0.04645   0.01267  Uiso   1.00
P34    P     0.76620   0.20481   0.32651   0.01267  Uiso   1.00
P35    P     0.93808   0.06048   0.36130   0.01267  Uiso   1.00
P36    P     0.57204   0.12163   0.45355   0.01267  Uiso   1.00
P37    P     0.40729   0.29519   0.32651   0.01267  Uiso   1.00
P38    P     0.20062   0.43952   0.36130   0.01267  Uiso   1.00
P39    P     0.47441   0.37837   0.45355   0.01267  Uiso   1.00
P40    P     0.02899   0.20481   0.17349   0.01267  Uiso   1.00
P41    P     0.00144   0.06048   0.13870   0.01267  Uiso   1.00
P42    P     0.30633   0.12163   0.04645   0.01267  Uiso   1.00
P43    P     0.70248   0.32651   0.20481   0.01267  Uiso   1.00
P44    P     0.64014   0.36130   0.06048   0.01267  Uiso   1.00
P45    P     0.85278   0.45355   0.12163   0.01267  Uiso   1.00
P46    P     0.23380   0.17349   0.29519   0.01267  Uiso   1.00
P47    P     0.06192   0.13870   0.43952   0.01267  Uiso   1.00
P48    P     0.42796   0.04645   0.37837   0.01267  Uiso   1.00
P49    P     0.28491   0.96520   0.03480   0.01267  Uiso   1.00
P50    P     0.28491   0.53480   0.46520   0.01267  Uiso   1.00
P51    P     0.81971   0.46520   0.96520   0.01267  Uiso   1.00
P52    P     0.25011   0.03480   0.53480   0.01267  Uiso   1.00
P53    P     0.71509   0.46520   0.53480   0.01267  Uiso   1.00
P54    P     0.71509   0.03480   0.96520   0.01267  Uiso   1.00
P55    P     0.18029   0.53480   0.03480   0.01267  Uiso   1.00
P56    P     0.74989   0.96520   0.46520   0.01267  Uiso   1.00
H1     H     0.32690   0.79030   0.80950   0.01267  Uiso   1.00
H2     H     0.23340   0.82400   0.95980   0.01267  Uiso   1.00
H3     H     0.40000   0.98240   0.86020   0.01267  Uiso   1.00
H4     H     0.92670   0.70970   0.69050   0.01267  Uiso   1.00
H5     H     0.01720   0.67600   0.54020   0.01267  Uiso   1.00
H6     H     0.24260   0.51760   0.63980   0.01267  Uiso   1.00
H7     H     0.63640   0.69050   0.79030   0.01267  Uiso   1.00
H8     H     0.69320   0.54020   0.82400   0.01267  Uiso   1.00
H9     H     0.76020   0.63980   0.98240   0.01267  Uiso   1.00
H10    H     0.11720   0.80950   0.70970   0.01267  Uiso   1.00
H11    H     0.05740   0.95980   0.67600   0.01267  Uiso   1.00
H12    H     0.38240   0.86020   0.51760   0.01267  Uiso   1.00
H13    H     0.67310   0.69050   0.70970   0.01267  Uiso   1.00
H14    H     0.76660   0.54020   0.67600   0.01267  Uiso   1.00
H15    H     0.60000   0.63980   0.51760   0.01267  Uiso   1.00
H16    H     0.07330   0.80950   0.79030   0.01267  Uiso   1.00
H17    H     0.98280   0.95980   0.82400   0.01267  Uiso   1.00
H18    H     0.75740   0.86020   0.98240   0.01267  Uiso   1.00
H19    H     0.36360   0.70970   0.80950   0.01267  Uiso   1.00
H20    H     0.30680   0.67600   0.95980   0.01267  Uiso   1.00
H21    H     0.23980   0.51760   0.86020   0.01267  Uiso   1.00
H22    H     0.88280   0.79030   0.69050   0.01267  Uiso   1.00
H23    H     0.94260   0.82400   0.54020   0.01267  Uiso   1.00
H24    H     0.61760   0.98240   0.63980   0.01267  Uiso   1.00
H25    H     0.67310   0.20970   0.19050   0.01267  Uiso   1.00
H26    H     0.76660   0.17600   0.04020   0.01267  Uiso   1.00
H27    H     0.60000   0.01760   0.13980   0.01267  Uiso   1.00
H28    H     0.07330   0.29030   0.30950   0.01267  Uiso   1.00
H29    H     0.98280   0.32400   0.45980   0.01267  Uiso   1.00
H30    H     0.75740   0.48240   0.36020   0.01267  Uiso   1.00
H31    H     0.36360   0.30950   0.20970   0.01267  Uiso   1.00
H32    H     0.30680   0.45980   0.17600   0.01267  Uiso   1.00
H33    H     0.23980   0.36020   0.01760   0.01267  Uiso   1.00
H34    H     0.88280   0.19050   0.29030   0.01267  Uiso   1.00
H35    H     0.94260   0.04020   0.32400   0.01267  Uiso   1.00
H36    H     0.61760   0.13980   0.48240   0.01267  Uiso   1.00
H37    H     0.32690   0.30950   0.29030   0.01267  Uiso   1.00
H38    H     0.23340   0.45980   0.32400   0.01267  Uiso   1.00
H39    H     0.40000   0.36020   0.48240   0.01267  Uiso   1.00
H40    H     0.92670   0.19050   0.20970   0.01267  Uiso   1.00
H41    H     0.01720   0.04020   0.17600   0.01267  Uiso   1.00
H42    H     0.24260   0.13980   0.01760   0.01267  Uiso   1.00
H43    H     0.63640   0.29030   0.19050   0.01267  Uiso   1.00
H44    H     0.69320   0.32400   0.04020   0.01267  Uiso   1.00
H45    H     0.76020   0.48240   0.13980   0.01267  Uiso   1.00
H46    H     0.11720   0.20970   0.30950   0.01267  Uiso   1.00
H47    H     0.05740   0.17600   0.45980   0.01267  Uiso   1.00
H48    H     0.38240   0.01760   0.36020   0.01267  Uiso   1.00
H49    H     0.21190   0.94230   0.05770   0.01267  Uiso   1.00
H50    H     0.21190   0.55770   0.44230   0.01267  Uiso   1.00
H51    H     0.76960   0.44230   0.94230   0.01267  Uiso   1.00
H52    H     0.15420   0.05770   0.55770   0.01267  Uiso   1.00
H53    H     0.78810   0.44230   0.55770   0.01267  Uiso   1.00
H54    H     0.78810   0.05770   0.94230   0.01267  Uiso   1.00
H55    H     0.23040   0.55770   0.05770   0.01267  Uiso   1.00
H56    H     0.84580   0.94230   0.44230   0.01267  Uiso   1.00
O1     O     0.41355   0.82566   0.75104   0.01267  Uiso   1.00
O2     O     0.54816   0.82210   0.80858   0.01267  Uiso   1.00
O3     O     0.31954   0.86361   0.81031   0.01267  Uiso   1.00
O4     O     0.22097   0.89534   0.96412   0.01267  Uiso   1.00
O5     O     0.29920   0.85697   0.90183   0.01267  Uiso   1.00
O6     O     0.05255   0.86371   0.93499   0.01267  Uiso   1.00
O7     O     0.39808   0.93976   0.01068   0.01267  Uiso   1.00
O8     O     0.45808   0.91845   0.85539   0.01267  Uiso   1.00
O9     O     0.62414   0.95544   0.87628   0.01267  Uiso   1.00
O10    O     0.39510   0.95612   0.91968   0.01267  Uiso   1.00
O11    O     0.99025   0.67434   0.74896   0.01267  Uiso   1.00
O12    O     0.17884   0.67790   0.69142   0.01267  Uiso   1.00
O13    O     0.99346   0.63639   0.68969   0.01267  Uiso   1.00
O14    O     0.08043   0.60466   0.53588   0.01267  Uiso   1.00
O15    O     0.05800   0.64303   0.59817   0.01267  Uiso   1.00
O16    O     0.85125   0.63629   0.56501   0.01267  Uiso   1.00
O17    O     0.34852   0.56024   0.48932   0.01267  Uiso   1.00
O18    O     0.23192   0.58155   0.64461   0.01267  Uiso   1.00
O19    O     0.45586   0.54456   0.62372   0.01267  Uiso   1.00
O20    O     0.27090   0.54388   0.58032   0.01267  Uiso   1.00
O21    O     0.66459   0.74896   0.82566   0.01267  Uiso   1.00
O22    O     0.85674   0.69142   0.82210   0.01267  Uiso   1.00
O23    O     0.62985   0.68969   0.86361   0.01267  Uiso   1.00
O24    O     0.68509   0.53588   0.89534   0.01267  Uiso   1.00
O25    O     0.70103   0.59817   0.85697   0.01267  Uiso   1.00
O26    O     0.48754   0.56501   0.86371   0.01267  Uiso   1.00
O27    O     0.90876   0.48932   0.93976   0.01267  Uiso   1.00
O28    O     0.81347   0.64461   0.91845   0.01267  Uiso   1.00
O29    O     0.00042   0.62372   0.95544   0.01267  Uiso   1.00
O30    O     0.81478   0.58032   0.95612   0.01267  Uiso   1.00
O31    O     0.23921   0.75104   0.67434   0.01267  Uiso   1.00
O32    O     0.37026   0.80858   0.67790   0.01267  Uiso   1.00
O33    O     0.18315   0.81031   0.63639   0.01267  Uiso   1.00
O34    O     0.11631   0.96412   0.60466   0.01267  Uiso   1.00
O35    O     0.15617   0.90183   0.64303   0.01267  Uiso   1.00
O36    O     0.91626   0.93499   0.63629   0.01267  Uiso   1.00
O37    O     0.33784   0.01068   0.56024   0.01267  Uiso   1.00
O38    O     0.37653   0.85539   0.58155   0.01267  Uiso   1.00
O39    O     0.57958   0.87628   0.54456   0.01267  Uiso   1.00
O40    O     0.35122   0.91968   0.54388   0.01267  Uiso   1.00
O41    O     0.58645   0.74896   0.67434   0.01267  Uiso   1.00
O42    O     0.45184   0.69142   0.67790   0.01267  Uiso   1.00
O43    O     0.68046   0.68969   0.63639   0.01267  Uiso   1.00
O44    O     0.77903   0.53588   0.60466   0.01267  Uiso   1.00
O45    O     0.70080   0.59817   0.64303   0.01267  Uiso   1.00
O46    O     0.94745   0.56501   0.63629   0.01267  Uiso   1.00
O47    O     0.60192   0.48932   0.56024   0.01267  Uiso   1.00
O48    O     0.54192   0.64461   0.58155   0.01267  Uiso   1.00
O49    O     0.37586   0.62372   0.54456   0.01267  Uiso   1.00
O50    O     0.60490   0.58032   0.54388   0.01267  Uiso   1.00
O51    O     0.00975   0.75104   0.82566   0.01267  Uiso   1.00
O52    O     0.82116   0.80858   0.82210   0.01267  Uiso   1.00
O53    O     0.00654   0.81031   0.86361   0.01267  Uiso   1.00
O54    O     0.91957   0.96412   0.89534   0.01267  Uiso   1.00
O55    O     0.94200   0.90183   0.85697   0.01267  Uiso   1.00
O56    O     0.14875   0.93499   0.86371   0.01267  Uiso   1.00
O57    O     0.65148   0.01068   0.93976   0.01267  Uiso   1.00
O58    O     0.76808   0.85539   0.91845   0.01267  Uiso   1.00
O59    O     0.54414   0.87628   0.95544   0.01267  Uiso   1.00
O60    O     0.72910   0.91968   0.95612   0.01267  Uiso   1.00
O61    O     0.33541   0.67434   0.75104   0.01267  Uiso   1.00
O62    O     0.14326   0.67790   0.80858   0.01267  Uiso   1.00
O63    O     0.37015   0.63639   0.81031   0.01267  Uiso   1.00
O64    O     0.31491   0.60466   0.96412   0.01267  Uiso   1.00
O65    O     0.29897   0.64303   0.90183   0.01267  Uiso   1.00
O66    O     0.51246   0.63629   0.93499   0.01267  Uiso   1.00
O67    O     0.09124   0.56024   0.01068   0.01267  Uiso   1.00
O68    O     0.18653   0.58155   0.85539   0.01267  Uiso   1.00
O69    O     0.99958   0.54456   0.87628   0.01267  Uiso   1.00
O70    O     0.18522   0.54388   0.91968   0.01267  Uiso   1.00
O71    O     0.76079   0.82566   0.74896   0.01267  Uiso   1.00
O72    O     0.62974   0.82210   0.69142   0.01267  Uiso   1.00
O73    O     0.81685   0.86361   0.68969   0.01267  Uiso   1.00
O74    O     0.88369   0.89534   0.53588   0.01267  Uiso   1.00
O75    O     0.84383   0.85697   0.59817   0.01267  Uiso   1.00
O76    O     0.08374   0.86371   0.56501   0.01267  Uiso   1.00
O77    O     0.66216   0.93976   0.48932   0.01267  Uiso   1.00
O78    O     0.62347   0.91845   0.64461   0.01267  Uiso   1.00
O79    O     0.42042   0.95544   0.62372   0.01267  Uiso   1.00
O80    O     0.64878   0.95612   0.58032   0.01267  Uiso   1.00
O81    O     0.58645   0.17434   0.24896   0.01267  Uiso   1.00
O82    O     0.45184   0.17790   0.19142   0.01267  Uiso   1.00
O83    O     0.68046   0.13639   0.18969   0.01267  Uiso   1.00
O84    O     0.77903   0.10466   0.03588   0.01267  Uiso   1.00
O85    O     0.70080   0.14303   0.09817   0.01267  Uiso   1.00
O86    O     0.94745   0.13629   0.06501   0.01267  Uiso   1.00
O87    O     0.60192   0.06024   0.98932   0.01267  Uiso   1.00
O88    O     0.54192   0.08155   0.14461   0.01267  Uiso   1.00
O89    O     0.37586   0.04456   0.12372   0.01267  Uiso   1.00
O90    O     0.60490   0.04388   0.08032   0.01267  Uiso   1.00
O91    O     0.00975   0.32566   0.25104   0.01267  Uiso   1.00
O92    O     0.82116   0.32210   0.30858   0.01267  Uiso   1.00
O93    O     0.00654   0.36361   0.31031   0.01267  Uiso   1.00
O94    O     0.91957   0.39534   0.46412   0.01267  Uiso   1.00
O95    O     0.94200   0.35697   0.40183   0.01267  Uiso   1.00
O96    O     0.14875   0.36371   0.43499   0.01267  Uiso   1.00
O97    O     0.65148   0.43976   0.51068   0.01267  Uiso   1.00
O98    O     0.76808   0.41845   0.35539   0.01267  Uiso   1.00
O99    O     0.54414   0.45544   0.37628   0.01267  Uiso   1.00
O100   O     0.72910   0.45612   0.41968   0.01267  Uiso   1.00
O101   O     0.33541   0.25104   0.17434   0.01267  Uiso   1.00
O102   O     0.14326   0.30858   0.17790   0.01267  Uiso   1.00
O103   O     0.37015   0.31031   0.13639   0.01267  Uiso   1.00
O104   O     0.31491   0.46412   0.10466   0.01267  Uiso   1.00
O105   O     0.29897   0.40183   0.14303   0.01267  Uiso   1.00
O106   O     0.51246   0.43499   0.13629   0.01267  Uiso   1.00
O107   O     0.09124   0.51068   0.06024   0.01267  Uiso   1.00
O108   O     0.18653   0.35539   0.08155   0.01267  Uiso   1.00
O109   O     0.99958   0.37628   0.04456   0.01267  Uiso   1.00
O110   O     0.18522   0.41968   0.04388   0.01267  Uiso   1.00
O111   O     0.76079   0.24896   0.32566   0.01267  Uiso   1.00
O112   O     0.62974   0.19142   0.32210   0.01267  Uiso   1.00
O113   O     0.81685   0.18969   0.36361   0.01267  Uiso   1.00
O114   O     0.88369   0.03588   0.39534   0.01267  Uiso   1.00
O115   O     0.84383   0.09817   0.35697   0.01267  Uiso   1.00
O116   O     0.08374   0.06501   0.36371   0.01267  Uiso   1.00
O117   O     0.66216   0.98932   0.43976   0.01267  Uiso   1.00
O118   O     0.62347   0.14461   0.41845   0.01267  Uiso   1.00
O119   O     0.42042   0.12372   0.45544   0.01267  Uiso   1.00
O120   O     0.64878   0.08032   0.45612   0.01267  Uiso   1.00
O121   O     0.41355   0.25104   0.32566   0.01267  Uiso   1.00
O122   O     0.54816   0.30858   0.32210   0.01267  Uiso   1.00
O123   O     0.31954   0.31031   0.36361   0.01267  Uiso   1.00
O124   O     0.22097   0.46412   0.39534   0.01267  Uiso   1.00
O125   O     0.29920   0.40183   0.35697   0.01267  Uiso   1.00
O126   O     0.05255   0.43499   0.36371   0.01267  Uiso   1.00
O127   O     0.39808   0.51068   0.43976   0.01267  Uiso   1.00
O128   O     0.45808   0.35539   0.41845   0.01267  Uiso   1.00
O129   O     0.62414   0.37628   0.45544   0.01267  Uiso   1.00
O130   O     0.39510   0.41968   0.45612   0.01267  Uiso   1.00
O131   O     0.99025   0.24896   0.17434   0.01267  Uiso   1.00
O132   O     0.17884   0.19142   0.17790   0.01267  Uiso   1.00
O133   O     0.99346   0.18969   0.13639   0.01267  Uiso   1.00
O134   O     0.08043   0.03588   0.10466   0.01267  Uiso   1.00
O135   O     0.05800   0.09817   0.14303   0.01267  Uiso   1.00
O136   O     0.85125   0.06501   0.13629   0.01267  Uiso   1.00
O137   O     0.34852   0.98932   0.06024   0.01267  Uiso   1.00
O138   O     0.23192   0.14461   0.08155   0.01267  Uiso   1.00
O139   O     0.45586   0.12372   0.04456   0.01267  Uiso   1.00
O140   O     0.27090   0.08032   0.04388   0.01267  Uiso   1.00
O141   O     0.66459   0.32566   0.24896   0.01267  Uiso   1.00
O142   O     0.85674   0.32210   0.19142   0.01267  Uiso   1.00
O143   O     0.62985   0.36361   0.18969   0.01267  Uiso   1.00
O144   O     0.68509   0.39534   0.03588   0.01267  Uiso   1.00
O145   O     0.70103   0.35697   0.09817   0.01267  Uiso   1.00
O146   O     0.48754   0.36371   0.06501   0.01267  Uiso   1.00
O147   O     0.90876   0.43976   0.98932   0.01267  Uiso   1.00
O148   O     0.81347   0.41845   0.14461   0.01267  Uiso   1.00
O149   O     0.00042   0.45544   0.12372   0.01267  Uiso   1.00
O150   O     0.81478   0.45612   0.08032   0.01267  Uiso   1.00
O151   O     0.23921   0.17434   0.25104   0.01267  Uiso   1.00
O152   O     0.37026   0.17790   0.30858   0.01267  Uiso   1.00
O153   O     0.18315   0.13639   0.31031   0.01267  Uiso   1.00
O154   O     0.11631   0.10466   0.46412   0.01267  Uiso   1.00
O155   O     0.15617   0.14303   0.40183   0.01267  Uiso   1.00
O156   O     0.91626   0.13629   0.43499   0.01267  Uiso   1.00
O157   O     0.33784   0.06024   0.51068   0.01267  Uiso   1.00
O158   O     0.37653   0.08155   0.35539   0.01267  Uiso   1.00
O159   O     0.57958   0.04456   0.37628   0.01267  Uiso   1.00
O160   O     0.35122   0.04388   0.41968   0.01267  Uiso   1.00
O161   O     0.19110   0.98957   0.01043   0.01267  Uiso   1.00
O162   O     0.19110   0.51043   0.48957   0.01267  Uiso   1.00
O163   O     0.70153   0.48957   0.98957   0.01267  Uiso   1.00
O164   O     0.18067   0.01043   0.51043   0.01267  Uiso   1.00
O165   O     0.80890   0.48957   0.51043   0.01267  Uiso   1.00
O166   O     0.80890   0.01043   0.98957   0.01267  Uiso   1.00
O167   O     0.29847   0.51043   0.01043   0.01267  Uiso   1.00
O168   O     0.81933   0.98957   0.48957   0.01267  Uiso   1.00
F1     F     0.38235   0.75000   0.73530   0.01267  Uiso   1.00
F2     F     0.86765   0.75000   0.76470   0.01267  Uiso   1.00
F3     F     0.61765   0.76470   0.75000   0.01267  Uiso   1.00
F4     F     0.13235   0.73530   0.75000   0.01267  Uiso   1.00
F5     F     0.61765   0.25000   0.26470   0.01267  Uiso   1.00
F6     F     0.13235   0.25000   0.23530   0.01267  Uiso   1.00
F7     F     0.38235   0.23530   0.25000   0.01267  Uiso   1.00
F8     F     0.86765   0.26470   0.25000   0.01267  Uiso   1.00
