data_LETQEI_clean
_audit_creation_date              2014-07-02
_audit_creation_method            'Materials Studio'
_symmetry_space_group_name_H-M    'P1'
_symmetry_Int_Tables_number       1
_symmetry_cell_setting            triclinic
loop_
_symmetry_equiv_pos_as_xyz
  x,y,z
_cell_length_a                    9.9819
_cell_length_b                    47.1551
_cell_length_c                    47.1552
_cell_angle_alpha                 89.3582
_cell_angle_beta                  83.9244
_cell_angle_gamma                 83.9247
loop_
_atom_site_label
_atom_site_type_symbol
_atom_site_fract_x
_atom_site_fract_y
_atom_site_fract_z
_atom_site_U_iso_or_equiv
_atom_site_adp_type
_atom_site_occupancy
Zn1    Zn    0.08965   0.82832   0.14534   0.01267  Uiso   1.00
Zn2    Zn    0.90498   0.90433   0.12831   0.01267  Uiso   1.00
Zn3    Zn    0.89855   0.99276   0.03754   0.01267  Uiso   1.00
Zn4    Zn    0.56331   0.67168   0.35466   0.01267  Uiso   1.00
Zn5    Zn    0.43762   0.59567   0.37169   0.01267  Uiso   1.00
Zn6    Zn    0.42885   0.50724   0.46246   0.01267  Uiso   1.00
Zn7    Zn    0.73499   0.85466   0.32832   0.01267  Uiso   1.00
Zn8    Zn    0.53329   0.87169   0.40433   0.01267  Uiso   1.00
Zn9    Zn    0.43609   0.96246   0.49276   0.01267  Uiso   1.00
Zn10   Zn    0.41797   0.64534   0.17168   0.01267  Uiso   1.00
Zn11   Zn    0.30931   0.62831   0.09567   0.01267  Uiso   1.00
Zn12   Zn    0.39131   0.53754   0.00724   0.01267  Uiso   1.00
Zn13   Zn    0.93669   0.64534   0.32832   0.01267  Uiso   1.00
Zn14   Zn    0.06238   0.62831   0.40433   0.01267  Uiso   1.00
Zn15   Zn    0.07115   0.53754   0.49276   0.01267  Uiso   1.00
Zn16   Zn    0.41035   0.85466   0.17168   0.01267  Uiso   1.00
Zn17   Zn    0.59502   0.87169   0.09567   0.01267  Uiso   1.00
Zn18   Zn    0.60145   0.96246   0.00724   0.01267  Uiso   1.00
Zn19   Zn    0.08203   0.82832   0.35466   0.01267  Uiso   1.00
Zn20   Zn    0.19069   0.90433   0.37169   0.01267  Uiso   1.00
Zn21   Zn    0.10869   0.99276   0.46246   0.01267  Uiso   1.00
Zn22   Zn    0.76501   0.67168   0.14534   0.01267  Uiso   1.00
Zn23   Zn    0.96671   0.59567   0.12831   0.01267  Uiso   1.00
Zn24   Zn    0.06391   0.50724   0.03754   0.01267  Uiso   1.00
Zn25   Zn    0.91035   0.17168   0.85466   0.01267  Uiso   1.00
Zn26   Zn    0.09502   0.09567   0.87169   0.01267  Uiso   1.00
Zn27   Zn    0.10145   0.00724   0.96246   0.01267  Uiso   1.00
Zn28   Zn    0.43669   0.32832   0.64534   0.01267  Uiso   1.00
Zn29   Zn    0.56238   0.40433   0.62831   0.01267  Uiso   1.00
Zn30   Zn    0.57115   0.49276   0.53754   0.01267  Uiso   1.00
Zn31   Zn    0.26501   0.14534   0.67168   0.01267  Uiso   1.00
Zn32   Zn    0.46671   0.12831   0.59567   0.01267  Uiso   1.00
Zn33   Zn    0.56391   0.03754   0.50724   0.01267  Uiso   1.00
Zn34   Zn    0.58203   0.35466   0.82832   0.01267  Uiso   1.00
Zn35   Zn    0.69069   0.37169   0.90433   0.01267  Uiso   1.00
Zn36   Zn    0.60869   0.46246   0.99276   0.01267  Uiso   1.00
Zn37   Zn    0.06331   0.35466   0.67168   0.01267  Uiso   1.00
Zn38   Zn    0.93762   0.37169   0.59567   0.01267  Uiso   1.00
Zn39   Zn    0.92885   0.46246   0.50724   0.01267  Uiso   1.00
Zn40   Zn    0.58965   0.14534   0.82832   0.01267  Uiso   1.00
Zn41   Zn    0.40498   0.12831   0.90433   0.01267  Uiso   1.00
Zn42   Zn    0.39855   0.03754   0.99276   0.01267  Uiso   1.00
Zn43   Zn    0.91797   0.17168   0.64534   0.01267  Uiso   1.00
Zn44   Zn    0.80931   0.09567   0.62831   0.01267  Uiso   1.00
Zn45   Zn    0.89131   0.00724   0.53754   0.01267  Uiso   1.00
Zn46   Zn    0.23499   0.32832   0.85466   0.01267  Uiso   1.00
Zn47   Zn    0.03329   0.40433   0.87169   0.01267  Uiso   1.00
Zn48   Zn    0.93609   0.49276   0.96246   0.01267  Uiso   1.00
Zn49   Zn    0.25000   0.93278   0.06722   0.01267  Uiso   1.00
Zn50   Zn    0.75000   0.56722   0.43278   0.01267  Uiso   1.00
Zn51   Zn    0.81722   0.93278   0.43278   0.01267  Uiso   1.00
Zn52   Zn    0.68278   0.56722   0.06722   0.01267  Uiso   1.00
Zn53   Zn    0.75000   0.06722   0.93278   0.01267  Uiso   1.00
Zn54   Zn    0.25000   0.43278   0.56722   0.01267  Uiso   1.00
Zn55   Zn    0.18278   0.06722   0.56722   0.01267  Uiso   1.00
Zn56   Zn    0.31722   0.43278   0.93278   0.01267  Uiso   1.00
Ga1    Ga    0.02700   0.72300   0.22300   0.01267  Uiso   1.00
Ga2    Ga    0.47300   0.77700   0.27700   0.01267  Uiso   1.00
Ga3    Ga    0.75000   0.77700   0.22300   0.01267  Uiso   1.00
Ga4    Ga    0.25000   0.72300   0.27700   0.01267  Uiso   1.00
Ga5    Ga    0.97300   0.27700   0.77700   0.01267  Uiso   1.00
Ga6    Ga    0.52700   0.22300   0.72300   0.01267  Uiso   1.00
Ga7    Ga    0.25000   0.22300   0.77700   0.01267  Uiso   1.00
Ga8    Ga    0.75000   0.27700   0.72300   0.01267  Uiso   1.00
P1     P     0.12009   0.88832   0.16850   0.01267  Uiso   1.00
P2     P     0.88387   0.84406   0.10120   0.01267  Uiso   1.00
P3     P     0.04016   0.78304   0.19384   0.01267  Uiso   1.00
P4     P     0.94077   0.95766   0.09140   0.01267  Uiso   1.00
P5     P     0.88161   0.96683   0.97775   0.01267  Uiso   1.00
P6     P     0.67691   0.61168   0.33150   0.01267  Uiso   1.00
P7     P     0.32913   0.65594   0.39880   0.01267  Uiso   1.00
P8     P     0.51704   0.71696   0.30616   0.01267  Uiso   1.00
P9     P     0.48983   0.54234   0.40860   0.01267  Uiso   1.00
P10    P     0.32619   0.53317   0.52225   0.01267  Uiso   1.00
P11    P     0.78859   0.83150   0.38832   0.01267  Uiso   1.00
P12    P     0.48507   0.89880   0.34406   0.01267  Uiso   1.00
P13    P     0.73400   0.80616   0.28304   0.01267  Uiso   1.00
P14    P     0.53217   0.90860   0.45766   0.01267  Uiso   1.00
P15    P     0.35936   0.02225   0.46683   0.01267  Uiso   1.00
P16    P     0.50841   0.66850   0.11168   0.01267  Uiso   1.00
P17    P     0.22793   0.60120   0.15594   0.01267  Uiso   1.00
P18    P     0.32320   0.69384   0.21696   0.01267  Uiso   1.00
P19    P     0.39843   0.59140   0.04234   0.01267  Uiso   1.00
P20    P     0.34844   0.47775   0.03317   0.01267  Uiso   1.00
P21    P     0.82309   0.66850   0.38832   0.01267  Uiso   1.00
P22    P     0.17087   0.60120   0.34406   0.01267  Uiso   1.00
P23    P     0.98296   0.69384   0.28304   0.01267  Uiso   1.00
P24    P     0.01017   0.59140   0.45766   0.01267  Uiso   1.00
P25    P     0.17381   0.47775   0.46683   0.01267  Uiso   1.00
P26    P     0.37991   0.83150   0.11168   0.01267  Uiso   1.00
P27    P     0.61613   0.89880   0.15594   0.01267  Uiso   1.00
P28    P     0.45984   0.80616   0.21696   0.01267  Uiso   1.00
P29    P     0.55923   0.90860   0.04234   0.01267  Uiso   1.00
P30    P     0.61839   0.02225   0.03317   0.01267  Uiso   1.00
P31    P     0.99159   0.88832   0.33150   0.01267  Uiso   1.00
P32    P     0.27207   0.84406   0.39880   0.01267  Uiso   1.00
P33    P     0.17680   0.78304   0.30616   0.01267  Uiso   1.00
P34    P     0.10157   0.95766   0.40860   0.01267  Uiso   1.00
P35    P     0.15156   0.96683   0.52225   0.01267  Uiso   1.00
P36    P     0.71141   0.61168   0.16850   0.01267  Uiso   1.00
P37    P     0.01493   0.65594   0.10120   0.01267  Uiso   1.00
P38    P     0.76600   0.71696   0.19384   0.01267  Uiso   1.00
P39    P     0.96783   0.54234   0.09140   0.01267  Uiso   1.00
P40    P     0.14064   0.53317   0.97775   0.01267  Uiso   1.00
P41    P     0.87991   0.11168   0.83150   0.01267  Uiso   1.00
P42    P     0.11613   0.15594   0.89880   0.01267  Uiso   1.00
P43    P     0.95984   0.21696   0.80616   0.01267  Uiso   1.00
P44    P     0.05923   0.04234   0.90860   0.01267  Uiso   1.00
P45    P     0.11839   0.03317   0.02225   0.01267  Uiso   1.00
P46    P     0.32309   0.38832   0.66850   0.01267  Uiso   1.00
P47    P     0.67087   0.34406   0.60120   0.01267  Uiso   1.00
P48    P     0.48296   0.28304   0.69384   0.01267  Uiso   1.00
P49    P     0.51017   0.45766   0.59140   0.01267  Uiso   1.00
P50    P     0.67381   0.46683   0.47775   0.01267  Uiso   1.00
P51    P     0.21141   0.16850   0.61168   0.01267  Uiso   1.00
P52    P     0.51493   0.10120   0.65594   0.01267  Uiso   1.00
P53    P     0.26600   0.19384   0.71696   0.01267  Uiso   1.00
P54    P     0.46783   0.09140   0.54234   0.01267  Uiso   1.00
P55    P     0.64064   0.97775   0.53317   0.01267  Uiso   1.00
P56    P     0.49159   0.33150   0.88832   0.01267  Uiso   1.00
P57    P     0.77207   0.39880   0.84406   0.01267  Uiso   1.00
P58    P     0.67680   0.30616   0.78304   0.01267  Uiso   1.00
P59    P     0.60157   0.40860   0.95766   0.01267  Uiso   1.00
P60    P     0.65156   0.52225   0.96683   0.01267  Uiso   1.00
P61    P     0.17691   0.33150   0.61168   0.01267  Uiso   1.00
P62    P     0.82913   0.39880   0.65594   0.01267  Uiso   1.00
P63    P     0.01704   0.30616   0.71696   0.01267  Uiso   1.00
P64    P     0.98983   0.40860   0.54234   0.01267  Uiso   1.00
P65    P     0.82619   0.52225   0.53317   0.01267  Uiso   1.00
P66    P     0.62009   0.16850   0.88832   0.01267  Uiso   1.00
P67    P     0.38387   0.10120   0.84406   0.01267  Uiso   1.00
P68    P     0.54016   0.19384   0.78304   0.01267  Uiso   1.00
P69    P     0.44077   0.09140   0.95766   0.01267  Uiso   1.00
P70    P     0.38161   0.97775   0.96683   0.01267  Uiso   1.00
P71    P     0.00841   0.11168   0.66850   0.01267  Uiso   1.00
P72    P     0.72793   0.15594   0.60120   0.01267  Uiso   1.00
P73    P     0.82320   0.21696   0.69384   0.01267  Uiso   1.00
P74    P     0.89843   0.04234   0.59140   0.01267  Uiso   1.00
P75    P     0.84844   0.03317   0.47775   0.01267  Uiso   1.00
P76    P     0.28859   0.38832   0.83150   0.01267  Uiso   1.00
P77    P     0.98507   0.34406   0.89880   0.01267  Uiso   1.00
P78    P     0.23400   0.28304   0.80616   0.01267  Uiso   1.00
P79    P     0.03217   0.45766   0.90860   0.01267  Uiso   1.00
P80    P     0.85936   0.46683   0.02225   0.01267  Uiso   1.00
H1     H     0.08180   0.90250   0.19510   0.01267  Uiso   1.00
H2     H     0.95420   0.82850   0.07630   0.01267  Uiso   1.00
H3     H     0.12650   0.79210   0.21350   0.01267  Uiso   1.00
H4     H     0.02110   0.97440   0.10680   0.01267  Uiso   1.00
H5     H     0.98020   0.94790   0.96810   0.01267  Uiso   1.00
H6     H     0.67940   0.59750   0.30490   0.01267  Uiso   1.00
H7     H     0.35900   0.67150   0.42370   0.01267  Uiso   1.00
H8     H     0.63210   0.70790   0.28650   0.01267  Uiso   1.00
H9     H     0.60230   0.52560   0.39320   0.01267  Uiso   1.00
H10    H     0.39620   0.55210   0.53190   0.01267  Uiso   1.00
H11    H     0.77690   0.80490   0.40250   0.01267  Uiso   1.00
H12    H     0.53050   0.92370   0.32850   0.01267  Uiso   1.00
H13    H     0.84000   0.78650   0.29210   0.01267  Uiso   1.00
H14    H     0.62790   0.89320   0.47440   0.01267  Uiso   1.00
H15    H     0.44830   0.03190   0.44790   0.01267  Uiso   1.00
H16    H     0.48430   0.69510   0.09750   0.01267  Uiso   1.00
H17    H     0.28270   0.57630   0.17150   0.01267  Uiso   1.00
H18    H     0.41860   0.71350   0.20790   0.01267  Uiso   1.00
H19    H     0.49550   0.60680   0.02560   0.01267  Uiso   1.00
H20    H     0.42810   0.46810   0.05210   0.01267  Uiso   1.00
H21    H     0.82060   0.69510   0.40250   0.01267  Uiso   1.00
H22    H     0.14100   0.57630   0.32850   0.01267  Uiso   1.00
H23    H     0.86790   0.71350   0.29210   0.01267  Uiso   1.00
H24    H     0.89770   0.60680   0.47440   0.01267  Uiso   1.00
H25    H     0.10380   0.46810   0.44790   0.01267  Uiso   1.00
H26    H     0.41820   0.80490   0.09750   0.01267  Uiso   1.00
H27    H     0.54580   0.92370   0.17150   0.01267  Uiso   1.00
H28    H     0.37350   0.78650   0.20790   0.01267  Uiso   1.00
H29    H     0.47890   0.89320   0.02560   0.01267  Uiso   1.00
H30    H     0.51980   0.03190   0.05210   0.01267  Uiso   1.00
H31    H     0.01570   0.90250   0.30490   0.01267  Uiso   1.00
H32    H     0.21730   0.82850   0.42370   0.01267  Uiso   1.00
H33    H     0.08140   0.79210   0.28650   0.01267  Uiso   1.00
H34    H     0.00450   0.97440   0.39320   0.01267  Uiso   1.00
H35    H     0.07190   0.94790   0.53190   0.01267  Uiso   1.00
H36    H     0.72310   0.59750   0.19510   0.01267  Uiso   1.00
H37    H     0.96950   0.67150   0.07630   0.01267  Uiso   1.00
H38    H     0.66000   0.70790   0.21350   0.01267  Uiso   1.00
H39    H     0.87210   0.52560   0.10680   0.01267  Uiso   1.00
H40    H     0.05170   0.55210   0.96810   0.01267  Uiso   1.00
H41    H     0.91820   0.09750   0.80490   0.01267  Uiso   1.00
H42    H     0.04580   0.17150   0.92370   0.01267  Uiso   1.00
H43    H     0.87350   0.20790   0.78650   0.01267  Uiso   1.00
H44    H     0.97890   0.02560   0.89320   0.01267  Uiso   1.00
H45    H     0.01980   0.05210   0.03190   0.01267  Uiso   1.00
H46    H     0.32060   0.40250   0.69510   0.01267  Uiso   1.00
H47    H     0.64100   0.32850   0.57630   0.01267  Uiso   1.00
H48    H     0.36790   0.29210   0.71350   0.01267  Uiso   1.00
H49    H     0.39770   0.47440   0.60680   0.01267  Uiso   1.00
H50    H     0.60380   0.44790   0.46810   0.01267  Uiso   1.00
H51    H     0.22310   0.19510   0.59750   0.01267  Uiso   1.00
H52    H     0.46950   0.07630   0.67150   0.01267  Uiso   1.00
H53    H     0.16000   0.21350   0.70790   0.01267  Uiso   1.00
H54    H     0.37210   0.10680   0.52560   0.01267  Uiso   1.00
H55    H     0.55170   0.96810   0.55210   0.01267  Uiso   1.00
H56    H     0.51570   0.30490   0.90250   0.01267  Uiso   1.00
H57    H     0.71730   0.42370   0.82850   0.01267  Uiso   1.00
H58    H     0.58140   0.28650   0.79210   0.01267  Uiso   1.00
H59    H     0.50450   0.39320   0.97440   0.01267  Uiso   1.00
H60    H     0.57190   0.53190   0.94790   0.01267  Uiso   1.00
H61    H     0.17940   0.30490   0.59750   0.01267  Uiso   1.00
H62    H     0.85900   0.42370   0.67150   0.01267  Uiso   1.00
H63    H     0.13210   0.28650   0.70790   0.01267  Uiso   1.00
H64    H     0.10230   0.39320   0.52560   0.01267  Uiso   1.00
H65    H     0.89620   0.53190   0.55210   0.01267  Uiso   1.00
H66    H     0.58180   0.19510   0.90250   0.01267  Uiso   1.00
H67    H     0.45420   0.07630   0.82850   0.01267  Uiso   1.00
H68    H     0.62650   0.21350   0.79210   0.01267  Uiso   1.00
H69    H     0.52110   0.10680   0.97440   0.01267  Uiso   1.00
H70    H     0.48020   0.96810   0.94790   0.01267  Uiso   1.00
H71    H     0.98430   0.09750   0.69510   0.01267  Uiso   1.00
H72    H     0.78270   0.17150   0.57630   0.01267  Uiso   1.00
H73    H     0.91860   0.20790   0.71350   0.01267  Uiso   1.00
H74    H     0.99550   0.02560   0.60680   0.01267  Uiso   1.00
H75    H     0.92810   0.05210   0.46810   0.01267  Uiso   1.00
H76    H     0.27690   0.40250   0.80490   0.01267  Uiso   1.00
H77    H     0.03050   0.32850   0.92370   0.01267  Uiso   1.00
H78    H     0.34000   0.29210   0.78650   0.01267  Uiso   1.00
H79    H     0.12790   0.47440   0.89320   0.01267  Uiso   1.00
H80    H     0.94830   0.44790   0.03190   0.01267  Uiso   1.00
O1     O     0.05784   0.86072   0.17180   0.01267  Uiso   1.00
O2     O     0.07297   0.90675   0.14351   0.01267  Uiso   1.00
O3     O     0.26978   0.88535   0.16629   0.01267  Uiso   1.00
O4     O     0.92921   0.82836   0.12802   0.01267  Uiso   1.00
O5     O     0.93176   0.87504   0.09984   0.01267  Uiso   1.00
O6     O     0.73380   0.84366   0.09994   0.01267  Uiso   1.00
O7     O     0.07063   0.75080   0.19474   0.01267  Uiso   1.00
O8     O     0.88702   0.79263   0.19753   0.01267  Uiso   1.00
O9     O     0.10532   0.79443   0.16673   0.01267  Uiso   1.00
O10    O     0.05455   0.94064   0.07486   0.01267  Uiso   1.00
O11    O     0.85710   0.97528   0.07432   0.01267  Uiso   1.00
O12    O     0.85947   0.94043   0.11023   0.01267  Uiso   1.00
O13    O     0.92750   0.96409   0.00791   0.01267  Uiso   1.00
O14    O     0.93630   0.99327   0.96133   0.01267  Uiso   1.00
O15    O     0.73470   0.96695   0.97805   0.01267  Uiso   1.00
O16    O     0.59036   0.63928   0.32820   0.01267  Uiso   1.00
O17    O     0.62323   0.59325   0.35649   0.01267  Uiso   1.00
O18    O     0.82142   0.61465   0.33371   0.01267  Uiso   1.00
O19    O     0.38559   0.67164   0.37198   0.01267  Uiso   1.00
O20    O     0.40664   0.62496   0.40016   0.01267  Uiso   1.00
O21    O     0.17740   0.65634   0.40006   0.01267  Uiso   1.00
O22    O     0.51617   0.74920   0.30526   0.01267  Uiso   1.00
O23    O     0.37718   0.70737   0.30247   0.01267  Uiso   1.00
O24    O     0.56648   0.70557   0.33327   0.01267  Uiso   1.00
O25    O     0.57005   0.55936   0.42514   0.01267  Uiso   1.00
O26    O     0.40670   0.52472   0.42568   0.01267  Uiso   1.00
O27    O     0.41013   0.55957   0.38977   0.01267  Uiso   1.00
O28    O     0.39950   0.53591   0.49209   0.01267  Uiso   1.00
O29    O     0.39090   0.50673   0.53867   0.01267  Uiso   1.00
O30    O     0.17970   0.53305   0.52195   0.01267  Uiso   1.00
O31    O     0.72964   0.82820   0.36072   0.01267  Uiso   1.00
O32    O     0.71648   0.85649   0.40675   0.01267  Uiso   1.00
O33    O     0.93607   0.83371   0.38535   0.01267  Uiso   1.00
O34    O     0.55723   0.87198   0.32836   0.01267  Uiso   1.00
O35    O     0.53160   0.90016   0.37504   0.01267  Uiso   1.00
O36    O     0.33374   0.90006   0.34366   0.01267  Uiso   1.00
O37    O     0.76537   0.80526   0.25080   0.01267  Uiso   1.00
O38    O     0.58455   0.80247   0.29263   0.01267  Uiso   1.00
O39    O     0.77205   0.83327   0.29443   0.01267  Uiso   1.00
O40    O     0.62941   0.92514   0.44064   0.01267  Uiso   1.00
O41    O     0.43142   0.92568   0.47528   0.01267  Uiso   1.00
O42    O     0.46970   0.88977   0.44043   0.01267  Uiso   1.00
O43    O     0.43541   0.99209   0.46409   0.01267  Uiso   1.00
O44    O     0.39763   0.03867   0.49327   0.01267  Uiso   1.00
O45    O     0.21275   0.02195   0.46695   0.01267  Uiso   1.00
O46    O     0.41856   0.67180   0.13928   0.01267  Uiso   1.00
O47    O     0.47972   0.64351   0.09325   0.01267  Uiso   1.00
O48    O     0.65513   0.66629   0.11465   0.01267  Uiso   1.00
O49    O     0.25757   0.62802   0.17164   0.01267  Uiso   1.00
O50    O     0.30680   0.59984   0.12496   0.01267  Uiso   1.00
O51    O     0.07746   0.59994   0.15634   0.01267  Uiso   1.00
O52    O     0.32143   0.69474   0.24920   0.01267  Uiso   1.00
O53    O     0.17965   0.69753   0.20737   0.01267  Uiso   1.00
O54    O     0.39975   0.66673   0.20557   0.01267  Uiso   1.00
O55    O     0.49519   0.57486   0.05936   0.01267  Uiso   1.00
O56    O     0.33238   0.57432   0.02472   0.01267  Uiso   1.00
O57    O     0.29990   0.61023   0.05957   0.01267  Uiso   1.00
O58    O     0.39159   0.50791   0.03591   0.01267  Uiso   1.00
O59    O     0.42957   0.46133   0.00673   0.01267  Uiso   1.00
O60    O     0.20165   0.47805   0.03305   0.01267  Uiso   1.00
O61    O     0.90964   0.67180   0.36072   0.01267  Uiso   1.00
O62    O     0.87677   0.64351   0.40675   0.01267  Uiso   1.00
O63    O     0.67858   0.66629   0.38535   0.01267  Uiso   1.00
O64    O     0.11441   0.62802   0.32836   0.01267  Uiso   1.00
O65    O     0.09336   0.59984   0.37504   0.01267  Uiso   1.00
O66    O     0.32260   0.59994   0.34366   0.01267  Uiso   1.00
O67    O     0.98383   0.69474   0.25080   0.01267  Uiso   1.00
O68    O     0.12282   0.69753   0.29263   0.01267  Uiso   1.00
O69    O     0.93352   0.66673   0.29443   0.01267  Uiso   1.00
O70    O     0.92995   0.57486   0.44064   0.01267  Uiso   1.00
O71    O     0.09330   0.57432   0.47528   0.01267  Uiso   1.00
O72    O     0.08987   0.61023   0.44043   0.01267  Uiso   1.00
O73    O     0.10050   0.50791   0.46409   0.01267  Uiso   1.00
O74    O     0.10910   0.46133   0.49327   0.01267  Uiso   1.00
O75    O     0.32030   0.47805   0.46695   0.01267  Uiso   1.00
O76    O     0.44216   0.82820   0.13928   0.01267  Uiso   1.00
O77    O     0.42703   0.85649   0.09325   0.01267  Uiso   1.00
O78    O     0.23022   0.83371   0.11465   0.01267  Uiso   1.00
O79    O     0.57079   0.87198   0.17164   0.01267  Uiso   1.00
O80    O     0.56824   0.90016   0.12496   0.01267  Uiso   1.00
O81    O     0.76620   0.90006   0.15634   0.01267  Uiso   1.00
O82    O     0.42937   0.80526   0.24920   0.01267  Uiso   1.00
O83    O     0.61298   0.80247   0.20737   0.01267  Uiso   1.00
O84    O     0.39468   0.83327   0.20557   0.01267  Uiso   1.00
O85    O     0.44545   0.92514   0.05936   0.01267  Uiso   1.00
O86    O     0.64290   0.92568   0.02472   0.01267  Uiso   1.00
O87    O     0.64053   0.88977   0.05957   0.01267  Uiso   1.00
O88    O     0.57250   0.99209   0.03591   0.01267  Uiso   1.00
O89    O     0.56370   0.03867   0.00673   0.01267  Uiso   1.00
O90    O     0.76530   0.02195   0.03305   0.01267  Uiso   1.00
O91    O     0.08144   0.86072   0.32820   0.01267  Uiso   1.00
O92    O     0.02028   0.90675   0.35649   0.01267  Uiso   1.00
O93    O     0.84487   0.88535   0.33371   0.01267  Uiso   1.00
O94    O     0.24243   0.82836   0.37198   0.01267  Uiso   1.00
O95    O     0.19320   0.87504   0.40016   0.01267  Uiso   1.00
O96    O     0.42254   0.84366   0.40006   0.01267  Uiso   1.00
O97    O     0.17857   0.75080   0.30526   0.01267  Uiso   1.00
O98    O     0.32035   0.79263   0.30247   0.01267  Uiso   1.00
O99    O     0.10025   0.79443   0.33327   0.01267  Uiso   1.00
O100   O     0.00481   0.94064   0.42514   0.01267  Uiso   1.00
O101   O     0.16762   0.97528   0.42568   0.01267  Uiso   1.00
O102   O     0.20010   0.94043   0.38977   0.01267  Uiso   1.00
O103   O     0.10841   0.96409   0.49209   0.01267  Uiso   1.00
O104   O     0.07043   0.99327   0.53867   0.01267  Uiso   1.00
O105   O     0.29835   0.96695   0.52195   0.01267  Uiso   1.00
O106   O     0.77036   0.63928   0.17180   0.01267  Uiso   1.00
O107   O     0.78352   0.59325   0.14351   0.01267  Uiso   1.00
O108   O     0.56393   0.61465   0.16629   0.01267  Uiso   1.00
O109   O     0.94277   0.67164   0.12802   0.01267  Uiso   1.00
O110   O     0.96840   0.62496   0.09984   0.01267  Uiso   1.00
O111   O     0.16626   0.65634   0.09994   0.01267  Uiso   1.00
O112   O     0.73463   0.74920   0.19474   0.01267  Uiso   1.00
O113   O     0.91545   0.70737   0.19753   0.01267  Uiso   1.00
O114   O     0.72795   0.70557   0.16673   0.01267  Uiso   1.00
O115   O     0.87059   0.55936   0.07486   0.01267  Uiso   1.00
O116   O     0.06858   0.52472   0.07432   0.01267  Uiso   1.00
O117   O     0.03030   0.55957   0.11023   0.01267  Uiso   1.00
O118   O     0.06459   0.53591   0.00791   0.01267  Uiso   1.00
O119   O     0.10237   0.50673   0.96133   0.01267  Uiso   1.00
O120   O     0.28725   0.53305   0.97805   0.01267  Uiso   1.00
O121   O     0.94216   0.13928   0.82820   0.01267  Uiso   1.00
O122   O     0.92703   0.09325   0.85649   0.01267  Uiso   1.00
O123   O     0.73022   0.11465   0.83371   0.01267  Uiso   1.00
O124   O     0.07079   0.17164   0.87198   0.01267  Uiso   1.00
O125   O     0.06824   0.12496   0.90016   0.01267  Uiso   1.00
O126   O     0.26620   0.15634   0.90006   0.01267  Uiso   1.00
O127   O     0.92937   0.24920   0.80526   0.01267  Uiso   1.00
O128   O     0.11298   0.20737   0.80247   0.01267  Uiso   1.00
O129   O     0.89468   0.20557   0.83327   0.01267  Uiso   1.00
O130   O     0.94545   0.05936   0.92514   0.01267  Uiso   1.00
O131   O     0.14290   0.02472   0.92568   0.01267  Uiso   1.00
O132   O     0.14053   0.05957   0.88977   0.01267  Uiso   1.00
O133   O     0.07250   0.03591   0.99209   0.01267  Uiso   1.00
O134   O     0.06370   0.00673   0.03867   0.01267  Uiso   1.00
O135   O     0.26530   0.03305   0.02195   0.01267  Uiso   1.00
O136   O     0.40964   0.36072   0.67180   0.01267  Uiso   1.00
O137   O     0.37677   0.40675   0.64351   0.01267  Uiso   1.00
O138   O     0.17858   0.38535   0.66629   0.01267  Uiso   1.00
O139   O     0.61441   0.32836   0.62802   0.01267  Uiso   1.00
O140   O     0.59336   0.37504   0.59984   0.01267  Uiso   1.00
O141   O     0.82260   0.34366   0.59994   0.01267  Uiso   1.00
O142   O     0.48383   0.25080   0.69474   0.01267  Uiso   1.00
O143   O     0.62282   0.29263   0.69753   0.01267  Uiso   1.00
O144   O     0.43352   0.29443   0.66673   0.01267  Uiso   1.00
O145   O     0.42995   0.44064   0.57486   0.01267  Uiso   1.00
O146   O     0.59330   0.47528   0.57432   0.01267  Uiso   1.00
O147   O     0.58987   0.44043   0.61023   0.01267  Uiso   1.00
O148   O     0.60050   0.46409   0.50791   0.01267  Uiso   1.00
O149   O     0.60910   0.49327   0.46133   0.01267  Uiso   1.00
O150   O     0.82030   0.46695   0.47805   0.01267  Uiso   1.00
O151   O     0.27036   0.17180   0.63928   0.01267  Uiso   1.00
O152   O     0.28352   0.14351   0.59325   0.01267  Uiso   1.00
O153   O     0.06393   0.16629   0.61465   0.01267  Uiso   1.00
O154   O     0.44277   0.12802   0.67164   0.01267  Uiso   1.00
O155   O     0.46840   0.09984   0.62496   0.01267  Uiso   1.00
O156   O     0.66626   0.09994   0.65634   0.01267  Uiso   1.00
O157   O     0.23463   0.19474   0.74920   0.01267  Uiso   1.00
O158   O     0.41545   0.19753   0.70737   0.01267  Uiso   1.00
O159   O     0.22795   0.16673   0.70557   0.01267  Uiso   1.00
O160   O     0.37059   0.07486   0.55936   0.01267  Uiso   1.00
O161   O     0.56858   0.07432   0.52472   0.01267  Uiso   1.00
O162   O     0.53030   0.11023   0.55957   0.01267  Uiso   1.00
O163   O     0.56459   0.00791   0.53591   0.01267  Uiso   1.00
O164   O     0.60237   0.96133   0.50673   0.01267  Uiso   1.00
O165   O     0.78725   0.97805   0.53305   0.01267  Uiso   1.00
O166   O     0.58144   0.32820   0.86072   0.01267  Uiso   1.00
O167   O     0.52028   0.35649   0.90675   0.01267  Uiso   1.00
O168   O     0.34487   0.33371   0.88535   0.01267  Uiso   1.00
O169   O     0.74243   0.37198   0.82836   0.01267  Uiso   1.00
O170   O     0.69320   0.40016   0.87504   0.01267  Uiso   1.00
O171   O     0.92254   0.40006   0.84366   0.01267  Uiso   1.00
O172   O     0.67857   0.30526   0.75080   0.01267  Uiso   1.00
O173   O     0.82035   0.30247   0.79263   0.01267  Uiso   1.00
O174   O     0.60025   0.33327   0.79443   0.01267  Uiso   1.00
O175   O     0.50481   0.42514   0.94064   0.01267  Uiso   1.00
O176   O     0.66762   0.42568   0.97528   0.01267  Uiso   1.00
O177   O     0.70010   0.38977   0.94043   0.01267  Uiso   1.00
O178   O     0.60841   0.49209   0.96409   0.01267  Uiso   1.00
O179   O     0.57043   0.53867   0.99327   0.01267  Uiso   1.00
O180   O     0.79835   0.52195   0.96695   0.01267  Uiso   1.00
O181   O     0.09036   0.32820   0.63928   0.01267  Uiso   1.00
O182   O     0.12323   0.35649   0.59325   0.01267  Uiso   1.00
O183   O     0.32142   0.33371   0.61465   0.01267  Uiso   1.00
O184   O     0.88559   0.37198   0.67164   0.01267  Uiso   1.00
O185   O     0.90664   0.40016   0.62496   0.01267  Uiso   1.00
O186   O     0.67740   0.40006   0.65634   0.01267  Uiso   1.00
O187   O     0.01617   0.30526   0.74920   0.01267  Uiso   1.00
O188   O     0.87718   0.30247   0.70737   0.01267  Uiso   1.00
O189   O     0.06648   0.33327   0.70557   0.01267  Uiso   1.00
O190   O     0.07005   0.42514   0.55936   0.01267  Uiso   1.00
O191   O     0.90670   0.42568   0.52472   0.01267  Uiso   1.00
O192   O     0.91013   0.38977   0.55957   0.01267  Uiso   1.00
O193   O     0.89950   0.49209   0.53591   0.01267  Uiso   1.00
O194   O     0.89090   0.53867   0.50673   0.01267  Uiso   1.00
O195   O     0.67970   0.52195   0.53305   0.01267  Uiso   1.00
O196   O     0.55784   0.17180   0.86072   0.01267  Uiso   1.00
O197   O     0.57297   0.14351   0.90675   0.01267  Uiso   1.00
O198   O     0.76978   0.16629   0.88535   0.01267  Uiso   1.00
O199   O     0.42921   0.12802   0.82836   0.01267  Uiso   1.00
O200   O     0.43176   0.09984   0.87504   0.01267  Uiso   1.00
O201   O     0.23380   0.09994   0.84366   0.01267  Uiso   1.00
O202   O     0.57063   0.19474   0.75080   0.01267  Uiso   1.00
O203   O     0.38702   0.19753   0.79263   0.01267  Uiso   1.00
O204   O     0.60532   0.16673   0.79443   0.01267  Uiso   1.00
O205   O     0.55455   0.07486   0.94064   0.01267  Uiso   1.00
O206   O     0.35710   0.07432   0.97528   0.01267  Uiso   1.00
O207   O     0.35947   0.11023   0.94043   0.01267  Uiso   1.00
O208   O     0.42750   0.00791   0.96409   0.01267  Uiso   1.00
O209   O     0.43630   0.96133   0.99327   0.01267  Uiso   1.00
O210   O     0.23470   0.97805   0.96695   0.01267  Uiso   1.00
O211   O     0.91856   0.13928   0.67180   0.01267  Uiso   1.00
O212   O     0.97972   0.09325   0.64351   0.01267  Uiso   1.00
O213   O     0.15513   0.11465   0.66629   0.01267  Uiso   1.00
O214   O     0.75757   0.17164   0.62802   0.01267  Uiso   1.00
O215   O     0.80680   0.12496   0.59984   0.01267  Uiso   1.00
O216   O     0.57746   0.15634   0.59994   0.01267  Uiso   1.00
O217   O     0.82143   0.24920   0.69474   0.01267  Uiso   1.00
O218   O     0.67965   0.20737   0.69753   0.01267  Uiso   1.00
O219   O     0.89975   0.20557   0.66673   0.01267  Uiso   1.00
O220   O     0.99519   0.05936   0.57486   0.01267  Uiso   1.00
O221   O     0.83238   0.02472   0.57432   0.01267  Uiso   1.00
O222   O     0.79990   0.05957   0.61023   0.01267  Uiso   1.00
O223   O     0.89159   0.03591   0.50791   0.01267  Uiso   1.00
O224   O     0.92957   0.00673   0.46133   0.01267  Uiso   1.00
O225   O     0.70165   0.03305   0.47805   0.01267  Uiso   1.00
O226   O     0.22964   0.36072   0.82820   0.01267  Uiso   1.00
O227   O     0.21648   0.40675   0.85649   0.01267  Uiso   1.00
O228   O     0.43607   0.38535   0.83371   0.01267  Uiso   1.00
O229   O     0.05723   0.32836   0.87198   0.01267  Uiso   1.00
O230   O     0.03160   0.37504   0.90016   0.01267  Uiso   1.00
O231   O     0.83374   0.34366   0.90006   0.01267  Uiso   1.00
O232   O     0.26537   0.25080   0.80526   0.01267  Uiso   1.00
O233   O     0.08455   0.29263   0.80247   0.01267  Uiso   1.00
O234   O     0.27205   0.29443   0.83327   0.01267  Uiso   1.00
O235   O     0.12941   0.44064   0.92514   0.01267  Uiso   1.00
O236   O     0.93142   0.47528   0.92568   0.01267  Uiso   1.00
O237   O     0.96970   0.44043   0.88977   0.01267  Uiso   1.00
O238   O     0.93541   0.46409   0.99209   0.01267  Uiso   1.00
O239   O     0.89763   0.49327   0.03867   0.01267  Uiso   1.00
O240   O     0.71275   0.46695   0.02195   0.01267  Uiso   1.00
F1     F     0.88054   0.75000   0.23892   0.01267  Uiso   1.00
F2     F     0.36946   0.75000   0.26108   0.01267  Uiso   1.00
F3     F     0.61946   0.76108   0.25000   0.01267  Uiso   1.00
F4     F     0.13054   0.73892   0.25000   0.01267  Uiso   1.00
F5     F     0.11946   0.25000   0.76108   0.01267  Uiso   1.00
F6     F     0.63054   0.25000   0.73892   0.01267  Uiso   1.00
F7     F     0.38054   0.23892   0.75000   0.01267  Uiso   1.00
F8     F     0.86946   0.26108   0.75000   0.01267  Uiso   1.00
