data_LETRAF_clean
_audit_creation_date              2014-07-02
_audit_creation_method            'Materials Studio'
_symmetry_space_group_name_H-M    'P1'
_symmetry_Int_Tables_number       1
_symmetry_cell_setting            triclinic
loop_
_symmetry_equiv_pos_as_xyz
  x,y,z
_cell_length_a                    10.0356
_cell_length_b                    53.5225
_cell_length_c                    53.5225
_cell_angle_alpha                 103.4630
_cell_angle_beta                  90.0000
_cell_angle_gamma                 90.0000
loop_
_atom_site_label
_atom_site_type_symbol
_atom_site_fract_x
_atom_site_fract_y
_atom_site_fract_z
_atom_site_U_iso_or_equiv
_atom_site_adp_type
_atom_site_occupancy
Zn1    Zn    0.82869   0.87522   0.15746   0.01267  Uiso   1.00
Zn2    Zn    0.32629   0.83543   0.19103   0.01267  Uiso   1.00
Zn3    Zn    0.57584   0.83117   0.35169   0.01267  Uiso   1.00
Zn4    Zn    0.07846   0.87503   0.40103   0.01267  Uiso   1.00
Zn5    Zn    0.83640   0.94441   0.08579   0.01267  Uiso   1.00
Zn6    Zn    0.33640   0.97998   0.05026   0.01267  Uiso   1.00
Zn7    Zn    0.08590   0.96551   0.48949   0.01267  Uiso   1.00
Zn8    Zn    0.32869   0.62478   0.34254   0.01267  Uiso   1.00
Zn9    Zn    0.82629   0.66457   0.30897   0.01267  Uiso   1.00
Zn10   Zn    0.07584   0.66883   0.14831   0.01267  Uiso   1.00
Zn11   Zn    0.57846   0.62497   0.09897   0.01267  Uiso   1.00
Zn12   Zn    0.33640   0.55559   0.41421   0.01267  Uiso   1.00
Zn13   Zn    0.83640   0.52002   0.44974   0.01267  Uiso   1.00
Zn14   Zn    0.58590   0.53449   0.01051   0.01267  Uiso   1.00
Zn15   Zn    0.67131   0.65746   0.37522   0.01267  Uiso   1.00
Zn16   Zn    0.17371   0.69103   0.33543   0.01267  Uiso   1.00
Zn17   Zn    0.92416   0.85169   0.33117   0.01267  Uiso   1.00
Zn18   Zn    0.42154   0.90103   0.37503   0.01267  Uiso   1.00
Zn19   Zn    0.66360   0.58579   0.44441   0.01267  Uiso   1.00
Zn20   Zn    0.16360   0.55026   0.47998   0.01267  Uiso   1.00
Zn21   Zn    0.41410   0.98949   0.46551   0.01267  Uiso   1.00
Zn22   Zn    0.17131   0.84254   0.12478   0.01267  Uiso   1.00
Zn23   Zn    0.67371   0.80897   0.16457   0.01267  Uiso   1.00
Zn24   Zn    0.42416   0.64831   0.16883   0.01267  Uiso   1.00
Zn25   Zn    0.92154   0.59897   0.12497   0.01267  Uiso   1.00
Zn26   Zn    0.16360   0.91421   0.05559   0.01267  Uiso   1.00
Zn27   Zn    0.66360   0.94974   0.02002   0.01267  Uiso   1.00
Zn28   Zn    0.91410   0.51051   0.03449   0.01267  Uiso   1.00
Zn29   Zn    0.17131   0.12478   0.84254   0.01267  Uiso   1.00
Zn30   Zn    0.67371   0.16457   0.80897   0.01267  Uiso   1.00
Zn31   Zn    0.42416   0.16883   0.64831   0.01267  Uiso   1.00
Zn32   Zn    0.92154   0.12497   0.59897   0.01267  Uiso   1.00
Zn33   Zn    0.16360   0.05559   0.91421   0.01267  Uiso   1.00
Zn34   Zn    0.66360   0.02002   0.94974   0.01267  Uiso   1.00
Zn35   Zn    0.91410   0.03449   0.51051   0.01267  Uiso   1.00
Zn36   Zn    0.67131   0.37522   0.65746   0.01267  Uiso   1.00
Zn37   Zn    0.17371   0.33543   0.69103   0.01267  Uiso   1.00
Zn38   Zn    0.92416   0.33117   0.85169   0.01267  Uiso   1.00
Zn39   Zn    0.42154   0.37503   0.90103   0.01267  Uiso   1.00
Zn40   Zn    0.66360   0.44441   0.58579   0.01267  Uiso   1.00
Zn41   Zn    0.16360   0.47998   0.55026   0.01267  Uiso   1.00
Zn42   Zn    0.41410   0.46551   0.98949   0.01267  Uiso   1.00
Zn43   Zn    0.32869   0.34254   0.62478   0.01267  Uiso   1.00
Zn44   Zn    0.82629   0.30897   0.66457   0.01267  Uiso   1.00
Zn45   Zn    0.07584   0.14831   0.66883   0.01267  Uiso   1.00
Zn46   Zn    0.57846   0.09897   0.62497   0.01267  Uiso   1.00
Zn47   Zn    0.33640   0.41421   0.55559   0.01267  Uiso   1.00
Zn48   Zn    0.83640   0.44974   0.52002   0.01267  Uiso   1.00
Zn49   Zn    0.58590   0.01051   0.53449   0.01267  Uiso   1.00
Zn50   Zn    0.82869   0.15746   0.87522   0.01267  Uiso   1.00
Zn51   Zn    0.32629   0.19103   0.83543   0.01267  Uiso   1.00
Zn52   Zn    0.57584   0.35169   0.83117   0.01267  Uiso   1.00
Zn53   Zn    0.07846   0.40103   0.87503   0.01267  Uiso   1.00
Zn54   Zn    0.83640   0.08579   0.94441   0.01267  Uiso   1.00
Zn55   Zn    0.33640   0.05026   0.97998   0.01267  Uiso   1.00
Zn56   Zn    0.08590   0.48949   0.96551   0.01267  Uiso   1.00
Zn57   Zn    0.75000   0.93271   0.43271   0.01267  Uiso   1.00
Zn58   Zn    0.25000   0.56729   0.06729   0.01267  Uiso   1.00
Zn59   Zn    0.25000   0.06729   0.56729   0.01267  Uiso   1.00
Zn60   Zn    0.75000   0.43271   0.93271   0.01267  Uiso   1.00
Zn61   Zn    0.00000   0.00000   0.00000   0.01267  Uiso   1.00
Zn62   Zn    0.50000   0.50000   0.50000   0.01267  Uiso   1.00
Zn63   Zn    0.50000   0.89404   0.10596   0.01267  Uiso   1.00
Zn64   Zn    0.00000   0.60596   0.39404   0.01267  Uiso   1.00
Zn65   Zn    0.50000   0.10596   0.89404   0.01267  Uiso   1.00
Zn66   Zn    0.00000   0.39404   0.60596   0.01267  Uiso   1.00
Ga1    Ga    0.25000   0.77714   0.27714   0.01267  Uiso   1.00
Ga2    Ga    0.75000   0.72286   0.22286   0.01267  Uiso   1.00
Ga3    Ga    0.75000   0.22286   0.72286   0.01267  Uiso   1.00
Ga4    Ga    0.25000   0.27714   0.77714   0.01267  Uiso   1.00
Ga5    Ga    0.00000   0.77145   0.22855   0.01267  Uiso   1.00
Ga6    Ga    0.50000   0.72855   0.27145   0.01267  Uiso   1.00
Ga7    Ga    0.00000   0.22855   0.77145   0.01267  Uiso   1.00
Ga8    Ga    0.50000   0.27145   0.72855   0.01267  Uiso   1.00
P1     P     0.52650   0.78545   0.30363   0.01267  Uiso   1.00
P2     P     0.78180   0.91896   0.13028   0.01267  Uiso   1.00
P3     P     0.85190   0.83676   0.38184   0.01267  Uiso   1.00
P4     P     0.10790   0.87317   0.18163   0.01267  Uiso   1.00
P5     P     0.60260   0.86525   0.19259   0.01267  Uiso   1.00
P6     P     0.03000   0.91356   0.45286   0.01267  Uiso   1.00
P7     P     0.35710   0.85017   0.39331   0.01267  Uiso   1.00
P8     P     0.10380   0.97066   0.08588   0.01267  Uiso   1.00
P9     P     0.60560   0.97961   0.07629   0.01267  Uiso   1.00
P10    P     0.27740   0.79663   0.22633   0.01267  Uiso   1.00
P11    P     0.14090   0.01576   0.47216   0.01267  Uiso   1.00
P12    P     0.02650   0.71455   0.19637   0.01267  Uiso   1.00
P13    P     0.28180   0.58104   0.36972   0.01267  Uiso   1.00
P14    P     0.35190   0.66324   0.11816   0.01267  Uiso   1.00
P15    P     0.60790   0.62683   0.31837   0.01267  Uiso   1.00
P16    P     0.10260   0.63475   0.30741   0.01267  Uiso   1.00
P17    P     0.53000   0.58644   0.04714   0.01267  Uiso   1.00
P18    P     0.85710   0.64983   0.10669   0.01267  Uiso   1.00
P19    P     0.60380   0.52934   0.41412   0.01267  Uiso   1.00
P20    P     0.10560   0.52039   0.42371   0.01267  Uiso   1.00
P21    P     0.77740   0.70337   0.27367   0.01267  Uiso   1.00
P22    P     0.64090   0.48424   0.02784   0.01267  Uiso   1.00
P23    P     0.97350   0.80363   0.28545   0.01267  Uiso   1.00
P24    P     0.71820   0.63028   0.41896   0.01267  Uiso   1.00
P25    P     0.64810   0.88184   0.33676   0.01267  Uiso   1.00
P26    P     0.39210   0.68163   0.37317   0.01267  Uiso   1.00
P27    P     0.89740   0.69259   0.36525   0.01267  Uiso   1.00
P28    P     0.47000   0.95286   0.41356   0.01267  Uiso   1.00
P29    P     0.14290   0.89331   0.35017   0.01267  Uiso   1.00
P30    P     0.39620   0.58588   0.47066   0.01267  Uiso   1.00
P31    P     0.89440   0.57629   0.47961   0.01267  Uiso   1.00
P32    P     0.22260   0.72633   0.29663   0.01267  Uiso   1.00
P33    P     0.35910   0.97216   0.51576   0.01267  Uiso   1.00
P34    P     0.47350   0.69637   0.21455   0.01267  Uiso   1.00
P35    P     0.21820   0.86972   0.08104   0.01267  Uiso   1.00
P36    P     0.14810   0.61816   0.16324   0.01267  Uiso   1.00
P37    P     0.89210   0.81837   0.12683   0.01267  Uiso   1.00
P38    P     0.39740   0.80741   0.13475   0.01267  Uiso   1.00
P39    P     0.97000   0.54714   0.08644   0.01267  Uiso   1.00
P40    P     0.64290   0.60669   0.14983   0.01267  Uiso   1.00
P41    P     0.89620   0.91412   0.02934   0.01267  Uiso   1.00
P42    P     0.39440   0.92371   0.02039   0.01267  Uiso   1.00
P43    P     0.72260   0.77367   0.20337   0.01267  Uiso   1.00
P44    P     0.85910   0.52784   0.98424   0.01267  Uiso   1.00
P45    P     0.47350   0.21455   0.69637   0.01267  Uiso   1.00
P46    P     0.21820   0.08104   0.86972   0.01267  Uiso   1.00
P47    P     0.14810   0.16324   0.61816   0.01267  Uiso   1.00
P48    P     0.89210   0.12683   0.81837   0.01267  Uiso   1.00
P49    P     0.39740   0.13475   0.80741   0.01267  Uiso   1.00
P50    P     0.97000   0.08644   0.54714   0.01267  Uiso   1.00
P51    P     0.64290   0.14983   0.60669   0.01267  Uiso   1.00
P52    P     0.89620   0.02934   0.91412   0.01267  Uiso   1.00
P53    P     0.39440   0.02039   0.92371   0.01267  Uiso   1.00
P54    P     0.72260   0.20337   0.77367   0.01267  Uiso   1.00
P55    P     0.85910   0.98424   0.52784   0.01267  Uiso   1.00
P56    P     0.97350   0.28545   0.80363   0.01267  Uiso   1.00
P57    P     0.71820   0.41896   0.63028   0.01267  Uiso   1.00
P58    P     0.64810   0.33676   0.88184   0.01267  Uiso   1.00
P59    P     0.39210   0.37317   0.68163   0.01267  Uiso   1.00
P60    P     0.89740   0.36525   0.69259   0.01267  Uiso   1.00
P61    P     0.47000   0.41356   0.95286   0.01267  Uiso   1.00
P62    P     0.14290   0.35017   0.89331   0.01267  Uiso   1.00
P63    P     0.39620   0.47066   0.58588   0.01267  Uiso   1.00
P64    P     0.89440   0.47961   0.57629   0.01267  Uiso   1.00
P65    P     0.22260   0.29663   0.72633   0.01267  Uiso   1.00
P66    P     0.35910   0.51576   0.97216   0.01267  Uiso   1.00
P67    P     0.02650   0.19637   0.71455   0.01267  Uiso   1.00
P68    P     0.28180   0.36972   0.58104   0.01267  Uiso   1.00
P69    P     0.35190   0.11816   0.66324   0.01267  Uiso   1.00
P70    P     0.60790   0.31837   0.62683   0.01267  Uiso   1.00
P71    P     0.10260   0.30741   0.63475   0.01267  Uiso   1.00
P72    P     0.53000   0.04714   0.58644   0.01267  Uiso   1.00
P73    P     0.85710   0.10669   0.64983   0.01267  Uiso   1.00
P74    P     0.60380   0.41412   0.52934   0.01267  Uiso   1.00
P75    P     0.10560   0.42371   0.52039   0.01267  Uiso   1.00
P76    P     0.77740   0.27367   0.70337   0.01267  Uiso   1.00
P77    P     0.64090   0.02784   0.48424   0.01267  Uiso   1.00
P78    P     0.52650   0.30363   0.78545   0.01267  Uiso   1.00
P79    P     0.78180   0.13028   0.91896   0.01267  Uiso   1.00
P80    P     0.85190   0.38184   0.83676   0.01267  Uiso   1.00
P81    P     0.10790   0.18163   0.87317   0.01267  Uiso   1.00
P82    P     0.60260   0.19259   0.86525   0.01267  Uiso   1.00
P83    P     0.03000   0.45286   0.91356   0.01267  Uiso   1.00
P84    P     0.35710   0.39331   0.85017   0.01267  Uiso   1.00
P85    P     0.10380   0.08588   0.97066   0.01267  Uiso   1.00
P86    P     0.60560   0.07629   0.97961   0.01267  Uiso   1.00
P87    P     0.27740   0.22633   0.79663   0.01267  Uiso   1.00
P88    P     0.14090   0.47216   0.01576   0.01267  Uiso   1.00
P89    P     0.27880   0.02516   0.02516   0.01267  Uiso   1.00
P90    P     0.77880   0.47484   0.47484   0.01267  Uiso   1.00
P91    P     0.22120   0.52516   0.52516   0.01267  Uiso   1.00
P92    P     0.72120   0.97484   0.97484   0.01267  Uiso   1.00
H1     H     0.61490   0.79470   0.28390   0.01267  Uiso   1.00
H2     H     0.69610   0.94170   0.15030   0.01267  Uiso   1.00
H3     H     0.88440   0.81450   0.39490   0.01267  Uiso   1.00
H4     H     0.15390   0.90060   0.20000   0.01267  Uiso   1.00
H5     H     0.63460   0.88460   0.22080   0.01267  Uiso   1.00
H6     H     0.43270   0.83740   0.41200   0.01267  Uiso   1.00
H7     H     0.16070   0.98830   0.11350   0.01267  Uiso   1.00
H8     H     0.07360   0.02410   0.45050   0.01267  Uiso   1.00
H9     H     0.11490   0.70530   0.21610   0.01267  Uiso   1.00
H10    H     0.19610   0.55830   0.34970   0.01267  Uiso   1.00
H11    H     0.38440   0.68550   0.10510   0.01267  Uiso   1.00
H12    H     0.65390   0.59940   0.30000   0.01267  Uiso   1.00
H13    H     0.13460   0.61540   0.27920   0.01267  Uiso   1.00
H14    H     0.93270   0.66260   0.08800   0.01267  Uiso   1.00
H15    H     0.66070   0.51170   0.38650   0.01267  Uiso   1.00
H16    H     0.57360   0.47590   0.04950   0.01267  Uiso   1.00
H17    H     0.88510   0.78390   0.29470   0.01267  Uiso   1.00
H18    H     0.80390   0.65030   0.44170   0.01267  Uiso   1.00
H19    H     0.61560   0.89490   0.31450   0.01267  Uiso   1.00
H20    H     0.34610   0.70000   0.40060   0.01267  Uiso   1.00
H21    H     0.86540   0.72080   0.38460   0.01267  Uiso   1.00
H22    H     0.06730   0.91200   0.33740   0.01267  Uiso   1.00
H23    H     0.33930   0.61350   0.48830   0.01267  Uiso   1.00
H24    H     0.42640   0.95050   0.52410   0.01267  Uiso   1.00
H25    H     0.38510   0.71610   0.20530   0.01267  Uiso   1.00
H26    H     0.30390   0.84970   0.05830   0.01267  Uiso   1.00
H27    H     0.11560   0.60510   0.18550   0.01267  Uiso   1.00
H28    H     0.84610   0.80000   0.09940   0.01267  Uiso   1.00
H29    H     0.36540   0.77920   0.11540   0.01267  Uiso   1.00
H30    H     0.56730   0.58800   0.16260   0.01267  Uiso   1.00
H31    H     0.83930   0.88650   0.01170   0.01267  Uiso   1.00
H32    H     0.92640   0.54950   0.97590   0.01267  Uiso   1.00
H33    H     0.38510   0.20530   0.71610   0.01267  Uiso   1.00
H34    H     0.30390   0.05830   0.84970   0.01267  Uiso   1.00
H35    H     0.11560   0.18550   0.60510   0.01267  Uiso   1.00
H36    H     0.84610   0.09940   0.80000   0.01267  Uiso   1.00
H37    H     0.36540   0.11540   0.77920   0.01267  Uiso   1.00
H38    H     0.56730   0.16260   0.58800   0.01267  Uiso   1.00
H39    H     0.83930   0.01170   0.88650   0.01267  Uiso   1.00
H40    H     0.92640   0.97590   0.54950   0.01267  Uiso   1.00
H41    H     0.88510   0.29470   0.78390   0.01267  Uiso   1.00
H42    H     0.80390   0.44170   0.65030   0.01267  Uiso   1.00
H43    H     0.61560   0.31450   0.89490   0.01267  Uiso   1.00
H44    H     0.34610   0.40060   0.70000   0.01267  Uiso   1.00
H45    H     0.86540   0.38460   0.72080   0.01267  Uiso   1.00
H46    H     0.06730   0.33740   0.91200   0.01267  Uiso   1.00
H47    H     0.33930   0.48830   0.61350   0.01267  Uiso   1.00
H48    H     0.42640   0.52410   0.95050   0.01267  Uiso   1.00
H49    H     0.11490   0.21610   0.70530   0.01267  Uiso   1.00
H50    H     0.19610   0.34970   0.55830   0.01267  Uiso   1.00
H51    H     0.38440   0.10510   0.68550   0.01267  Uiso   1.00
H52    H     0.65390   0.30000   0.59940   0.01267  Uiso   1.00
H53    H     0.13460   0.27920   0.61540   0.01267  Uiso   1.00
H54    H     0.93270   0.08800   0.66260   0.01267  Uiso   1.00
H55    H     0.66070   0.38650   0.51170   0.01267  Uiso   1.00
H56    H     0.57360   0.04950   0.47590   0.01267  Uiso   1.00
H57    H     0.61490   0.28390   0.79470   0.01267  Uiso   1.00
H58    H     0.69610   0.15030   0.94170   0.01267  Uiso   1.00
H59    H     0.88440   0.39490   0.81450   0.01267  Uiso   1.00
H60    H     0.15390   0.20000   0.90060   0.01267  Uiso   1.00
H61    H     0.63460   0.22080   0.88460   0.01267  Uiso   1.00
H62    H     0.43270   0.41200   0.83740   0.01267  Uiso   1.00
H63    H     0.16070   0.11350   0.98830   0.01267  Uiso   1.00
H64    H     0.07360   0.45050   0.02410   0.01267  Uiso   1.00
O1     O     0.54690   0.75634   0.29932   0.01267  Uiso   1.00
O2     O     0.38070   0.79362   0.30150   0.01267  Uiso   1.00
O3     O     0.58570   0.79835   0.32957   0.01267  Uiso   1.00
O4     O     0.86550   0.90545   0.14567   0.01267  Uiso   1.00
O5     O     0.87340   0.93226   0.11606   0.01267  Uiso   1.00
O6     O     0.69220   0.90153   0.11363   0.01267  Uiso   1.00
O7     O     0.70170   0.83820   0.37972   0.01267  Uiso   1.00
O8     O     0.89990   0.86065   0.40075   0.01267  Uiso   1.00
O9     O     0.92570   0.83100   0.35650   0.01267  Uiso   1.00
O10    O     0.95710   0.87466   0.18252   0.01267  Uiso   1.00
O11    O     0.14940   0.85160   0.19254   0.01267  Uiso   1.00
O12    O     0.16340   0.87144   0.15442   0.01267  Uiso   1.00
O13    O     0.65300   0.87814   0.17158   0.01267  Uiso   1.00
O14    O     0.67140   0.84125   0.19243   0.01267  Uiso   1.00
O15    O     0.45580   0.86208   0.19042   0.01267  Uiso   1.00
O16    O     0.11530   0.89422   0.43440   0.01267  Uiso   1.00
O17    O     0.12510   0.93148   0.46950   0.01267  Uiso   1.00
O18    O     0.94340   0.92636   0.43896   0.01267  Uiso   1.00
O19    O     0.39710   0.83367   0.36867   0.01267  Uiso   1.00
O20    O     0.41450   0.87751   0.39797   0.01267  Uiso   1.00
O21    O     0.20670   0.84881   0.39417   0.01267  Uiso   1.00
O22    O     0.95760   0.97097   0.08439   0.01267  Uiso   1.00
O23    O     0.15690   0.98261   0.06421   0.01267  Uiso   1.00
O24    O     0.15720   0.94381   0.08419   0.01267  Uiso   1.00
O25    O     0.45850   0.97970   0.07726   0.01267  Uiso   1.00
O26    O     0.66160   0.97825   0.04875   0.01267  Uiso   1.00
O27    O     0.65540   0.95946   0.08884   0.01267  Uiso   1.00
O28    O     0.33640   0.81993   0.21941   0.01267  Uiso   1.00
O29    O     0.29670   0.79960   0.25544   0.01267  Uiso   1.00
O30    O     0.13250   0.79276   0.21768   0.01267  Uiso   1.00
O31    O     0.08830   0.98832   0.46668   0.01267  Uiso   1.00
O32    O     0.09370   0.03401   0.49585   0.01267  Uiso   1.00
O33    O     0.28620   0.01698   0.47262   0.01267  Uiso   1.00
O34    O     0.37200   0.00984   0.03778   0.01267  Uiso   1.00
O35    O     0.04690   0.74366   0.20068   0.01267  Uiso   1.00
O36    O     0.88070   0.70638   0.19850   0.01267  Uiso   1.00
O37    O     0.08570   0.70165   0.17043   0.01267  Uiso   1.00
O38    O     0.36550   0.59455   0.35433   0.01267  Uiso   1.00
O39    O     0.37340   0.56774   0.38394   0.01267  Uiso   1.00
O40    O     0.19220   0.59847   0.38637   0.01267  Uiso   1.00
O41    O     0.20170   0.66180   0.12028   0.01267  Uiso   1.00
O42    O     0.39990   0.63935   0.09925   0.01267  Uiso   1.00
O43    O     0.42570   0.66900   0.14350   0.01267  Uiso   1.00
O44    O     0.45710   0.62534   0.31748   0.01267  Uiso   1.00
O45    O     0.64940   0.64840   0.30746   0.01267  Uiso   1.00
O46    O     0.66340   0.62856   0.34558   0.01267  Uiso   1.00
O47    O     0.15300   0.62186   0.32842   0.01267  Uiso   1.00
O48    O     0.17140   0.65875   0.30757   0.01267  Uiso   1.00
O49    O     0.95580   0.63792   0.30958   0.01267  Uiso   1.00
O50    O     0.61530   0.60578   0.06560   0.01267  Uiso   1.00
O51    O     0.62510   0.56852   0.03050   0.01267  Uiso   1.00
O52    O     0.44340   0.57364   0.06104   0.01267  Uiso   1.00
O53    O     0.89710   0.66633   0.13133   0.01267  Uiso   1.00
O54    O     0.91450   0.62249   0.10203   0.01267  Uiso   1.00
O55    O     0.70670   0.65119   0.10583   0.01267  Uiso   1.00
O56    O     0.45760   0.52903   0.41561   0.01267  Uiso   1.00
O57    O     0.65690   0.51739   0.43579   0.01267  Uiso   1.00
O58    O     0.65720   0.55619   0.41581   0.01267  Uiso   1.00
O59    O     0.95850   0.52030   0.42274   0.01267  Uiso   1.00
O60    O     0.16160   0.52175   0.45125   0.01267  Uiso   1.00
O61    O     0.15540   0.54054   0.41116   0.01267  Uiso   1.00
O62    O     0.83640   0.68007   0.28059   0.01267  Uiso   1.00
O63    O     0.79670   0.70040   0.24456   0.01267  Uiso   1.00
O64    O     0.63250   0.70724   0.28232   0.01267  Uiso   1.00
O65    O     0.58830   0.51168   0.03332   0.01267  Uiso   1.00
O66    O     0.59370   0.46599   0.00415   0.01267  Uiso   1.00
O67    O     0.78620   0.48302   0.02738   0.01267  Uiso   1.00
O68    O     0.87200   0.49016   0.46222   0.01267  Uiso   1.00
O69    O     0.95310   0.79932   0.25634   0.01267  Uiso   1.00
O70    O     0.11930   0.80150   0.29362   0.01267  Uiso   1.00
O71    O     0.91430   0.82957   0.29835   0.01267  Uiso   1.00
O72    O     0.63450   0.64567   0.40545   0.01267  Uiso   1.00
O73    O     0.62660   0.61606   0.43226   0.01267  Uiso   1.00
O74    O     0.80780   0.61363   0.40153   0.01267  Uiso   1.00
O75    O     0.79830   0.87972   0.33820   0.01267  Uiso   1.00
O76    O     0.60010   0.90075   0.36065   0.01267  Uiso   1.00
O77    O     0.57430   0.85650   0.33100   0.01267  Uiso   1.00
O78    O     0.54290   0.68252   0.37466   0.01267  Uiso   1.00
O79    O     0.35060   0.69254   0.35160   0.01267  Uiso   1.00
O80    O     0.33660   0.65442   0.37144   0.01267  Uiso   1.00
O81    O     0.84700   0.67158   0.37814   0.01267  Uiso   1.00
O82    O     0.82860   0.69243   0.34125   0.01267  Uiso   1.00
O83    O     0.04420   0.69042   0.36208   0.01267  Uiso   1.00
O84    O     0.38470   0.93440   0.39422   0.01267  Uiso   1.00
O85    O     0.37490   0.96950   0.43148   0.01267  Uiso   1.00
O86    O     0.55660   0.93896   0.42636   0.01267  Uiso   1.00
O87    O     0.10290   0.86867   0.33367   0.01267  Uiso   1.00
O88    O     0.08550   0.89797   0.37751   0.01267  Uiso   1.00
O89    O     0.29330   0.89417   0.34881   0.01267  Uiso   1.00
O90    O     0.54240   0.58439   0.47097   0.01267  Uiso   1.00
O91    O     0.34310   0.56421   0.48261   0.01267  Uiso   1.00
O92    O     0.34280   0.58419   0.44381   0.01267  Uiso   1.00
O93    O     0.04150   0.57726   0.47970   0.01267  Uiso   1.00
O94    O     0.83840   0.54875   0.47825   0.01267  Uiso   1.00
O95    O     0.84460   0.58884   0.45946   0.01267  Uiso   1.00
O96    O     0.16360   0.71941   0.31993   0.01267  Uiso   1.00
O97    O     0.20330   0.75544   0.29960   0.01267  Uiso   1.00
O98    O     0.36750   0.71768   0.29276   0.01267  Uiso   1.00
O99    O     0.41170   0.96668   0.48832   0.01267  Uiso   1.00
O100   O     0.40630   0.99585   0.53401   0.01267  Uiso   1.00
O101   O     0.21380   0.97262   0.51698   0.01267  Uiso   1.00
O102   O     0.12800   0.53778   0.50984   0.01267  Uiso   1.00
O103   O     0.45310   0.70068   0.24366   0.01267  Uiso   1.00
O104   O     0.61930   0.69850   0.20638   0.01267  Uiso   1.00
O105   O     0.41430   0.67043   0.20165   0.01267  Uiso   1.00
O106   O     0.13450   0.85433   0.09455   0.01267  Uiso   1.00
O107   O     0.12660   0.88394   0.06774   0.01267  Uiso   1.00
O108   O     0.30780   0.88637   0.09847   0.01267  Uiso   1.00
O109   O     0.29830   0.62028   0.16180   0.01267  Uiso   1.00
O110   O     0.10010   0.59925   0.13935   0.01267  Uiso   1.00
O111   O     0.07430   0.64350   0.16900   0.01267  Uiso   1.00
O112   O     0.04290   0.81748   0.12534   0.01267  Uiso   1.00
O113   O     0.85060   0.80746   0.14840   0.01267  Uiso   1.00
O114   O     0.83660   0.84558   0.12856   0.01267  Uiso   1.00
O115   O     0.34700   0.82842   0.12186   0.01267  Uiso   1.00
O116   O     0.32860   0.80757   0.15875   0.01267  Uiso   1.00
O117   O     0.54420   0.80958   0.13792   0.01267  Uiso   1.00
O118   O     0.88470   0.56560   0.10578   0.01267  Uiso   1.00
O119   O     0.87490   0.53050   0.06852   0.01267  Uiso   1.00
O120   O     0.05660   0.56104   0.07364   0.01267  Uiso   1.00
O121   O     0.60290   0.63133   0.16633   0.01267  Uiso   1.00
O122   O     0.58550   0.60203   0.12249   0.01267  Uiso   1.00
O123   O     0.79330   0.60583   0.15119   0.01267  Uiso   1.00
O124   O     0.04240   0.91561   0.02903   0.01267  Uiso   1.00
O125   O     0.84310   0.93579   0.01739   0.01267  Uiso   1.00
O126   O     0.84280   0.91581   0.05619   0.01267  Uiso   1.00
O127   O     0.54150   0.92274   0.02030   0.01267  Uiso   1.00
O128   O     0.33840   0.95125   0.02175   0.01267  Uiso   1.00
O129   O     0.34460   0.91116   0.04054   0.01267  Uiso   1.00
O130   O     0.66360   0.78059   0.18007   0.01267  Uiso   1.00
O131   O     0.70330   0.74456   0.20040   0.01267  Uiso   1.00
O132   O     0.86750   0.78232   0.20724   0.01267  Uiso   1.00
O133   O     0.91170   0.53332   0.01168   0.01267  Uiso   1.00
O134   O     0.90630   0.50415   0.96599   0.01267  Uiso   1.00
O135   O     0.71380   0.52738   0.98302   0.01267  Uiso   1.00
O136   O     0.62800   0.96222   0.99016   0.01267  Uiso   1.00
O137   O     0.45310   0.24366   0.70068   0.01267  Uiso   1.00
O138   O     0.61930   0.20638   0.69850   0.01267  Uiso   1.00
O139   O     0.41430   0.20165   0.67043   0.01267  Uiso   1.00
O140   O     0.13450   0.09455   0.85433   0.01267  Uiso   1.00
O141   O     0.12660   0.06774   0.88394   0.01267  Uiso   1.00
O142   O     0.30780   0.09847   0.88637   0.01267  Uiso   1.00
O143   O     0.29830   0.16180   0.62028   0.01267  Uiso   1.00
O144   O     0.10010   0.13935   0.59925   0.01267  Uiso   1.00
O145   O     0.07430   0.16900   0.64350   0.01267  Uiso   1.00
O146   O     0.04290   0.12534   0.81748   0.01267  Uiso   1.00
O147   O     0.85060   0.14840   0.80746   0.01267  Uiso   1.00
O148   O     0.83660   0.12856   0.84558   0.01267  Uiso   1.00
O149   O     0.34700   0.12186   0.82842   0.01267  Uiso   1.00
O150   O     0.32860   0.15875   0.80757   0.01267  Uiso   1.00
O151   O     0.54420   0.13792   0.80958   0.01267  Uiso   1.00
O152   O     0.88470   0.10578   0.56560   0.01267  Uiso   1.00
O153   O     0.87490   0.06852   0.53050   0.01267  Uiso   1.00
O154   O     0.05660   0.07364   0.56104   0.01267  Uiso   1.00
O155   O     0.60290   0.16633   0.63133   0.01267  Uiso   1.00
O156   O     0.58550   0.12249   0.60203   0.01267  Uiso   1.00
O157   O     0.79330   0.15119   0.60583   0.01267  Uiso   1.00
O158   O     0.04240   0.02903   0.91561   0.01267  Uiso   1.00
O159   O     0.84310   0.01739   0.93579   0.01267  Uiso   1.00
O160   O     0.84280   0.05619   0.91581   0.01267  Uiso   1.00
O161   O     0.54150   0.02030   0.92274   0.01267  Uiso   1.00
O162   O     0.33840   0.02175   0.95125   0.01267  Uiso   1.00
O163   O     0.34460   0.04054   0.91116   0.01267  Uiso   1.00
O164   O     0.66360   0.18007   0.78059   0.01267  Uiso   1.00
O165   O     0.70330   0.20040   0.74456   0.01267  Uiso   1.00
O166   O     0.86750   0.20724   0.78232   0.01267  Uiso   1.00
O167   O     0.91170   0.01168   0.53332   0.01267  Uiso   1.00
O168   O     0.90630   0.96599   0.50415   0.01267  Uiso   1.00
O169   O     0.71380   0.98302   0.52738   0.01267  Uiso   1.00
O170   O     0.62800   0.99016   0.96222   0.01267  Uiso   1.00
O171   O     0.95310   0.25634   0.79932   0.01267  Uiso   1.00
O172   O     0.11930   0.29362   0.80150   0.01267  Uiso   1.00
O173   O     0.91430   0.29835   0.82957   0.01267  Uiso   1.00
O174   O     0.63450   0.40545   0.64567   0.01267  Uiso   1.00
O175   O     0.62660   0.43226   0.61606   0.01267  Uiso   1.00
O176   O     0.80780   0.40153   0.61363   0.01267  Uiso   1.00
O177   O     0.79830   0.33820   0.87972   0.01267  Uiso   1.00
O178   O     0.60010   0.36065   0.90075   0.01267  Uiso   1.00
O179   O     0.57430   0.33100   0.85650   0.01267  Uiso   1.00
O180   O     0.54290   0.37466   0.68252   0.01267  Uiso   1.00
O181   O     0.35060   0.35160   0.69254   0.01267  Uiso   1.00
O182   O     0.33660   0.37144   0.65442   0.01267  Uiso   1.00
O183   O     0.84700   0.37814   0.67158   0.01267  Uiso   1.00
O184   O     0.82860   0.34125   0.69243   0.01267  Uiso   1.00
O185   O     0.04420   0.36208   0.69042   0.01267  Uiso   1.00
O186   O     0.38470   0.39422   0.93440   0.01267  Uiso   1.00
O187   O     0.37490   0.43148   0.96950   0.01267  Uiso   1.00
O188   O     0.55660   0.42636   0.93896   0.01267  Uiso   1.00
O189   O     0.10290   0.33367   0.86867   0.01267  Uiso   1.00
O190   O     0.08550   0.37751   0.89797   0.01267  Uiso   1.00
O191   O     0.29330   0.34881   0.89417   0.01267  Uiso   1.00
O192   O     0.54240   0.47097   0.58439   0.01267  Uiso   1.00
O193   O     0.34310   0.48261   0.56421   0.01267  Uiso   1.00
O194   O     0.34280   0.44381   0.58419   0.01267  Uiso   1.00
O195   O     0.04150   0.47970   0.57726   0.01267  Uiso   1.00
O196   O     0.83840   0.47825   0.54875   0.01267  Uiso   1.00
O197   O     0.84460   0.45946   0.58884   0.01267  Uiso   1.00
O198   O     0.16360   0.31993   0.71941   0.01267  Uiso   1.00
O199   O     0.20330   0.29960   0.75544   0.01267  Uiso   1.00
O200   O     0.36750   0.29276   0.71768   0.01267  Uiso   1.00
O201   O     0.41170   0.48832   0.96668   0.01267  Uiso   1.00
O202   O     0.40630   0.53401   0.99585   0.01267  Uiso   1.00
O203   O     0.21380   0.51698   0.97262   0.01267  Uiso   1.00
O204   O     0.12800   0.50984   0.53778   0.01267  Uiso   1.00
O205   O     0.04690   0.20068   0.74366   0.01267  Uiso   1.00
O206   O     0.88070   0.19850   0.70638   0.01267  Uiso   1.00
O207   O     0.08570   0.17043   0.70165   0.01267  Uiso   1.00
O208   O     0.36550   0.35433   0.59455   0.01267  Uiso   1.00
O209   O     0.37340   0.38394   0.56774   0.01267  Uiso   1.00
O210   O     0.19220   0.38637   0.59847   0.01267  Uiso   1.00
O211   O     0.20170   0.12028   0.66180   0.01267  Uiso   1.00
O212   O     0.39990   0.09925   0.63935   0.01267  Uiso   1.00
O213   O     0.42570   0.14350   0.66900   0.01267  Uiso   1.00
O214   O     0.45710   0.31748   0.62534   0.01267  Uiso   1.00
O215   O     0.64940   0.30746   0.64840   0.01267  Uiso   1.00
O216   O     0.66340   0.34558   0.62856   0.01267  Uiso   1.00
O217   O     0.15300   0.32842   0.62186   0.01267  Uiso   1.00
O218   O     0.17140   0.30757   0.65875   0.01267  Uiso   1.00
O219   O     0.95580   0.30958   0.63792   0.01267  Uiso   1.00
O220   O     0.61530   0.06560   0.60578   0.01267  Uiso   1.00
O221   O     0.62510   0.03050   0.56852   0.01267  Uiso   1.00
O222   O     0.44340   0.06104   0.57364   0.01267  Uiso   1.00
O223   O     0.89710   0.13133   0.66633   0.01267  Uiso   1.00
O224   O     0.91450   0.10203   0.62249   0.01267  Uiso   1.00
O225   O     0.70670   0.10583   0.65119   0.01267  Uiso   1.00
O226   O     0.45760   0.41561   0.52903   0.01267  Uiso   1.00
O227   O     0.65690   0.43579   0.51739   0.01267  Uiso   1.00
O228   O     0.65720   0.41581   0.55619   0.01267  Uiso   1.00
O229   O     0.95850   0.42274   0.52030   0.01267  Uiso   1.00
O230   O     0.16160   0.45125   0.52175   0.01267  Uiso   1.00
O231   O     0.15540   0.41116   0.54054   0.01267  Uiso   1.00
O232   O     0.83640   0.28059   0.68007   0.01267  Uiso   1.00
O233   O     0.79670   0.24456   0.70040   0.01267  Uiso   1.00
O234   O     0.63250   0.28232   0.70724   0.01267  Uiso   1.00
O235   O     0.58830   0.03332   0.51168   0.01267  Uiso   1.00
O236   O     0.59370   0.00415   0.46599   0.01267  Uiso   1.00
O237   O     0.78620   0.02738   0.48302   0.01267  Uiso   1.00
O238   O     0.87200   0.46222   0.49016   0.01267  Uiso   1.00
O239   O     0.54690   0.29932   0.75634   0.01267  Uiso   1.00
O240   O     0.38070   0.30150   0.79362   0.01267  Uiso   1.00
O241   O     0.58570   0.32957   0.79835   0.01267  Uiso   1.00
O242   O     0.86550   0.14567   0.90545   0.01267  Uiso   1.00
O243   O     0.87340   0.11606   0.93226   0.01267  Uiso   1.00
O244   O     0.69220   0.11363   0.90153   0.01267  Uiso   1.00
O245   O     0.70170   0.37972   0.83820   0.01267  Uiso   1.00
O246   O     0.89990   0.40075   0.86065   0.01267  Uiso   1.00
O247   O     0.92570   0.35650   0.83100   0.01267  Uiso   1.00
O248   O     0.95710   0.18252   0.87466   0.01267  Uiso   1.00
O249   O     0.14940   0.19254   0.85160   0.01267  Uiso   1.00
O250   O     0.16340   0.15442   0.87144   0.01267  Uiso   1.00
O251   O     0.65300   0.17158   0.87814   0.01267  Uiso   1.00
O252   O     0.67140   0.19243   0.84125   0.01267  Uiso   1.00
O253   O     0.45580   0.19042   0.86208   0.01267  Uiso   1.00
O254   O     0.11530   0.43440   0.89422   0.01267  Uiso   1.00
O255   O     0.12510   0.46950   0.93148   0.01267  Uiso   1.00
O256   O     0.94340   0.43896   0.92636   0.01267  Uiso   1.00
O257   O     0.39710   0.36867   0.83367   0.01267  Uiso   1.00
O258   O     0.41450   0.39797   0.87751   0.01267  Uiso   1.00
O259   O     0.20670   0.39417   0.84881   0.01267  Uiso   1.00
O260   O     0.95760   0.08439   0.97097   0.01267  Uiso   1.00
O261   O     0.15690   0.06421   0.98261   0.01267  Uiso   1.00
O262   O     0.15720   0.08419   0.94381   0.01267  Uiso   1.00
O263   O     0.45850   0.07726   0.97970   0.01267  Uiso   1.00
O264   O     0.66160   0.04875   0.97825   0.01267  Uiso   1.00
O265   O     0.65540   0.08884   0.95946   0.01267  Uiso   1.00
O266   O     0.33640   0.21941   0.81993   0.01267  Uiso   1.00
O267   O     0.29670   0.25544   0.79960   0.01267  Uiso   1.00
O268   O     0.13250   0.21768   0.79276   0.01267  Uiso   1.00
O269   O     0.08830   0.46668   0.98832   0.01267  Uiso   1.00
O270   O     0.09370   0.49585   0.03401   0.01267  Uiso   1.00
O271   O     0.28620   0.47262   0.01698   0.01267  Uiso   1.00
O272   O     0.37200   0.03778   0.00984   0.01267  Uiso   1.00
O273   O     0.19860   0.00630   0.00630   0.01267  Uiso   1.00
O274   O     0.69860   0.49370   0.49370   0.01267  Uiso   1.00
O275   O     0.30140   0.50630   0.50630   0.01267  Uiso   1.00
O276   O     0.80140   0.99370   0.99370   0.01267  Uiso   1.00
F1     F     0.37560   0.75102   0.25914   0.01267  Uiso   1.00
F2     F     0.87560   0.74898   0.24086   0.01267  Uiso   1.00
F3     F     0.12440   0.75914   0.25102   0.01267  Uiso   1.00
F4     F     0.62440   0.74086   0.24898   0.01267  Uiso   1.00
F5     F     0.62440   0.24898   0.74086   0.01267  Uiso   1.00
F6     F     0.12440   0.25102   0.75914   0.01267  Uiso   1.00
F7     F     0.87560   0.24086   0.74898   0.01267  Uiso   1.00
F8     F     0.37560   0.25914   0.75102   0.01267  Uiso   1.00
