data_LETROT_clean
_audit_creation_date              2014-07-02
_audit_creation_method            'Materials Studio'
_symmetry_space_group_name_H-M    'P1'
_symmetry_Int_Tables_number       1
_symmetry_cell_setting            triclinic
loop_
_symmetry_equiv_pos_as_xyz
  x,y,z
_cell_length_a                    10.3933
_cell_length_b                    10.8688
_cell_length_c                    11.0647
_cell_angle_alpha                 90.3671
_cell_angle_beta                  90.0000
_cell_angle_gamma                 118.5630
loop_
_atom_site_label
_atom_site_type_symbol
_atom_site_fract_x
_atom_site_fract_y
_atom_site_fract_z
_atom_site_U_iso_or_equiv
_atom_site_adp_type
_atom_site_occupancy
Zn1    Zn    0.48233   0.84568   0.00382   0.01267  Uiso   1.00
Zn2    Zn    0.63665   0.15432   0.49618   0.01267  Uiso   1.00
Zn3    Zn    0.51767   0.15432   0.99618   0.01267  Uiso   1.00
Zn4    Zn    0.36335   0.84568   0.50382   0.01267  Uiso   1.00
Zn5    Zn    0.62220   0.00000   0.75000   0.01267  Uiso   1.00
Zn6    Zn    0.37780   0.00000   0.25000   0.01267  Uiso   1.00
H1     H     0.59280   0.08920   0.94980   0.01267  Uiso   1.00
H2     H     0.57810   0.49540   0.93190   0.01267  Uiso   1.00
H3     H     0.67050   0.68600   0.60840   0.01267  Uiso   1.00
H4     H     0.64830   0.48680   0.51130   0.01267  Uiso   1.00
H5     H     0.50360   0.91080   0.55020   0.01267  Uiso   1.00
H6     H     0.08270   0.50460   0.56810   0.01267  Uiso   1.00
H7     H     0.98450   0.31400   0.89160   0.01267  Uiso   1.00
H8     H     0.16150   0.51320   0.98870   0.01267  Uiso   1.00
H9     H     0.40720   0.91080   0.05020   0.01267  Uiso   1.00
H10    H     0.42190   0.50460   0.06810   0.01267  Uiso   1.00
H11    H     0.32950   0.31400   0.39160   0.01267  Uiso   1.00
H12    H     0.35170   0.51320   0.48870   0.01267  Uiso   1.00
H13    H     0.49640   0.08920   0.44980   0.01267  Uiso   1.00
H14    H     0.91730   0.49540   0.43190   0.01267  Uiso   1.00
H15    H     0.01550   0.68600   0.10840   0.01267  Uiso   1.00
H16    H     0.83850   0.48680   0.01130   0.01267  Uiso   1.00
C1     C     0.59910   0.37020   0.66630   0.01267  Uiso   1.00
C2     C     0.57840   0.37160   0.79030   0.01267  Uiso   1.00
C3     C     0.59130   0.49320   0.84900   0.01267  Uiso   1.00
C4     C     0.62390   0.60700   0.77840   0.01267  Uiso   1.00
C5     C     0.64660   0.60560   0.65280   0.01267  Uiso   1.00
C6     C     0.63430   0.48820   0.59420   0.01267  Uiso   1.00
C7     C     0.63240   0.73860   0.83400   0.01267  Uiso   1.00
C8     C     0.22890   0.62980   0.83370   0.01267  Uiso   1.00
C9     C     0.20680   0.62840   0.70970   0.01267  Uiso   1.00
C10    C     0.09810   0.50680   0.65100   0.01267  Uiso   1.00
C11    C     0.01690   0.39300   0.72160   0.01267  Uiso   1.00
C12    C     0.04100   0.39440   0.84720   0.01267  Uiso   1.00
C13    C     0.14610   0.51180   0.90580   0.01267  Uiso   1.00
C14    C     0.89380   0.26140   0.66600   0.01267  Uiso   1.00
C15    C     0.40090   0.62980   0.33370   0.01267  Uiso   1.00
C16    C     0.42160   0.62840   0.20970   0.01267  Uiso   1.00
C17    C     0.40870   0.50680   0.15100   0.01267  Uiso   1.00
C18    C     0.37610   0.39300   0.22160   0.01267  Uiso   1.00
C19    C     0.35340   0.39440   0.34720   0.01267  Uiso   1.00
C20    C     0.36570   0.51180   0.40580   0.01267  Uiso   1.00
C21    C     0.36760   0.26140   0.16600   0.01267  Uiso   1.00
C22    C     0.77110   0.37020   0.16630   0.01267  Uiso   1.00
C23    C     0.79320   0.37160   0.29030   0.01267  Uiso   1.00
C24    C     0.90190   0.49320   0.34900   0.01267  Uiso   1.00
C25    C     0.98310   0.60700   0.27840   0.01267  Uiso   1.00
C26    C     0.95900   0.60560   0.15280   0.01267  Uiso   1.00
C27    C     0.85390   0.48820   0.09420   0.01267  Uiso   1.00
C28    C     0.10620   0.73860   0.33400   0.01267  Uiso   1.00
N1     N     0.58270   0.24160   0.63670   0.01267  Uiso   1.00
N2     N     0.55462   0.16884   0.73850   0.01267  Uiso   1.00
N3     N     0.55140   0.24380   0.83300   0.01267  Uiso   1.00
N4     N     0.34110   0.75840   0.86330   0.01267  Uiso   1.00
N5     N     0.38578   0.83116   0.76150   0.01267  Uiso   1.00
N6     N     0.30760   0.75620   0.66700   0.01267  Uiso   1.00
N7     N     0.41730   0.75840   0.36330   0.01267  Uiso   1.00
N8     N     0.44538   0.83116   0.26150   0.01267  Uiso   1.00
N9     N     0.44860   0.75620   0.16700   0.01267  Uiso   1.00
N10    N     0.65890   0.24160   0.13670   0.01267  Uiso   1.00
N11    N     0.61422   0.16884   0.23850   0.01267  Uiso   1.00
N12    N     0.69240   0.24380   0.33300   0.01267  Uiso   1.00
O1     O     0.59110   0.73360   0.94180   0.01267  Uiso   1.00
O2     O     0.67537   0.84214   0.76480   0.01267  Uiso   1.00
O3     O     0.62141   0.02942   0.93440   0.01267  Uiso   1.00
O4     O     0.85750   0.26640   0.55820   0.01267  Uiso   1.00
O5     O     0.83323   0.15786   0.73520   0.01267  Uiso   1.00
O6     O     0.59199   0.97058   0.56560   0.01267  Uiso   1.00
O7     O     0.40890   0.26640   0.05820   0.01267  Uiso   1.00
O8     O     0.32463   0.15786   0.23520   0.01267  Uiso   1.00
O9     O     0.37859   0.97058   0.06560   0.01267  Uiso   1.00
O10    O     0.14250   0.73360   0.44180   0.01267  Uiso   1.00
O11    O     0.16677   0.84214   0.26480   0.01267  Uiso   1.00
O12    O     0.40801   0.02942   0.43440   0.01267  Uiso   1.00
