data_LETRUZ_clean
_audit_creation_date              2014-07-02
_audit_creation_method            'Materials Studio'
_symmetry_space_group_name_H-M    'P1'
_symmetry_Int_Tables_number       1
_symmetry_cell_setting            triclinic
loop_
_symmetry_equiv_pos_as_xyz
  x,y,z
_cell_length_a                    9.3348
_cell_length_b                    10.7938
_cell_length_c                    11.0748
_cell_angle_alpha                 90.0000
_cell_angle_beta                  90.0000
_cell_angle_gamma                 115.6210
loop_
_atom_site_label
_atom_site_type_symbol
_atom_site_fract_x
_atom_site_fract_y
_atom_site_fract_z
_atom_site_U_iso_or_equiv
_atom_site_adp_type
_atom_site_occupancy
Zn1    Zn    0.51556   0.15004   0.50530   0.01267  Uiso   1.00
Zn2    Zn    0.36552   0.84996   0.99470   0.01267  Uiso   1.00
Zn3    Zn    0.48444   0.84996   0.49470   0.01267  Uiso   1.00
Zn4    Zn    0.63448   0.15004   0.00530   0.01267  Uiso   1.00
Zn5    Zn    0.35940  -0.00000   0.25000   0.01267  Uiso   1.00
Zn6    Zn    0.64060   0.00000   0.75000   0.01267  Uiso   1.00
H1     H     0.40000   0.91220   0.44700   0.01267  Uiso   1.00
H2     H     0.41680   0.50660   0.43420   0.01267  Uiso   1.00
H3     H     0.32410   0.31920   0.10810   0.01267  Uiso   1.00
H4     H     0.35910   0.52020   0.00970   0.01267  Uiso   1.00
H5     H     0.48780   0.08780   0.05300   0.01267  Uiso   1.00
H6     H     0.91020   0.49340   0.06580   0.01267  Uiso   1.00
H7     H     0.00490   0.68080   0.39190   0.01267  Uiso   1.00
H8     H     0.83890   0.47980   0.49030   0.01267  Uiso   1.00
H9     H     0.60000   0.08780   0.55300   0.01267  Uiso   1.00
H10    H     0.58320   0.49340   0.56580   0.01267  Uiso   1.00
H11    H     0.67590   0.68080   0.89190   0.01267  Uiso   1.00
H12    H     0.64090   0.47980   0.99030   0.01267  Uiso   1.00
H13    H     0.51220   0.91220   0.94700   0.01267  Uiso   1.00
H14    H     0.08980   0.50660   0.93420   0.01267  Uiso   1.00
H15    H     0.99510   0.31920   0.60810   0.01267  Uiso   1.00
H16    H     0.16110   0.52020   0.50970   0.01267  Uiso   1.00
C1     C     0.40310   0.63180   0.16540   0.01267  Uiso   1.00
C2     C     0.42080   0.62940   0.29270   0.01267  Uiso   1.00
C3     C     0.40280   0.50880   0.35120   0.01267  Uiso   1.00
C4     C     0.36400   0.39460   0.28200   0.01267  Uiso   1.00
C5     C     0.34840   0.39880   0.15260   0.01267  Uiso   1.00
C6     C     0.36840   0.51720   0.09320   0.01267  Uiso   1.00
C7     C     0.34310   0.26040   0.33940   0.01267  Uiso   1.00
C8     C     0.77130   0.36820   0.33460   0.01267  Uiso   1.00
C9     C     0.79140   0.37060   0.20730   0.01267  Uiso   1.00
C10    C     0.89400   0.49120   0.14880   0.01267  Uiso   1.00
C11    C     0.96940   0.60540   0.21800   0.01267  Uiso   1.00
C12    C     0.94960   0.60120   0.34740   0.01267  Uiso   1.00
C13    C     0.85120   0.48280   0.40680   0.01267  Uiso   1.00
C14    C     0.08270   0.73960   0.16060   0.01267  Uiso   1.00
C15    C     0.59690   0.36820   0.83460   0.01267  Uiso   1.00
C16    C     0.57920   0.37060   0.70730   0.01267  Uiso   1.00
C17    C     0.59720   0.49120   0.64880   0.01267  Uiso   1.00
C18    C     0.63600   0.60540   0.71800   0.01267  Uiso   1.00
C19    C     0.65160   0.60120   0.84740   0.01267  Uiso   1.00
C20    C     0.63160   0.48280   0.90680   0.01267  Uiso   1.00
C21    C     0.65690   0.73960   0.66060   0.01267  Uiso   1.00
C22    C     0.22870   0.63180   0.66540   0.01267  Uiso   1.00
C23    C     0.20860   0.62940   0.79270   0.01267  Uiso   1.00
C24    C     0.10600   0.50880   0.85120   0.01267  Uiso   1.00
C25    C     0.03060   0.39460   0.78200   0.01267  Uiso   1.00
C26    C     0.05040   0.39880   0.65260   0.01267  Uiso   1.00
C27    C     0.14880   0.51720   0.59320   0.01267  Uiso   1.00
C28    C     0.91730   0.26040   0.83940   0.01267  Uiso   1.00
N1     N     0.42220   0.76100   0.13590   0.01267  Uiso   1.00
N2     N     0.44710   0.83340   0.23820   0.01267  Uiso   1.00
N3     N     0.44880   0.75820   0.33480   0.01267  Uiso   1.00
N4     N     0.66120   0.23900   0.36410   0.01267  Uiso   1.00
N5     N     0.61370   0.16660   0.26180   0.01267  Uiso   1.00
N6     N     0.69060   0.24180   0.16520   0.01267  Uiso   1.00
N7     N     0.57780   0.23900   0.86410   0.01267  Uiso   1.00
N8     N     0.55290   0.16660   0.76180   0.01267  Uiso   1.00
N9     N     0.55120   0.24180   0.66520   0.01267  Uiso   1.00
N10    N     0.33880   0.76100   0.63590   0.01267  Uiso   1.00
N11    N     0.38630   0.83340   0.73820   0.01267  Uiso   1.00
N12    N     0.30940   0.75820   0.83480   0.01267  Uiso   1.00
O1     O     0.38230   0.26100   0.44740   0.01267  Uiso   1.00
O2     O     0.28920   0.15600   0.26960   0.01267  Uiso   1.00
O3     O     0.36683   0.97286   0.43310   0.01267  Uiso   1.00
O4     O     0.12130   0.73900   0.05260   0.01267  Uiso   1.00
O5     O     0.13320   0.84400   0.23040   0.01267  Uiso   1.00
O6     O     0.39397   0.02714   0.06690   0.01267  Uiso   1.00
O7     O     0.61770   0.73900   0.55260   0.01267  Uiso   1.00
O8     O     0.71080   0.84400   0.73040   0.01267  Uiso   1.00
O9     O     0.63317   0.02714   0.56690   0.01267  Uiso   1.00
O10    O     0.87870   0.26100   0.94740   0.01267  Uiso   1.00
O11    O     0.86680   0.15600   0.76960   0.01267  Uiso   1.00
O12    O     0.60603   0.97286   0.93310   0.01267  Uiso   1.00
