data_LETRIN_clean
_audit_creation_date              2014-07-02
_audit_creation_method            'Materials Studio'
_symmetry_space_group_name_H-M    'P1'
_symmetry_Int_Tables_number       1
_symmetry_cell_setting            triclinic
loop_
_symmetry_equiv_pos_as_xyz
  x,y,z
_cell_length_a                    11.0178
_cell_length_b                    11.0178
_cell_length_c                    11.0892
_cell_angle_alpha                 87.3837
_cell_angle_beta                  87.3837
_cell_angle_gamma                 70.5868
loop_
_atom_site_label
_atom_site_type_symbol
_atom_site_fract_x
_atom_site_fract_y
_atom_site_fract_z
_atom_site_U_iso_or_equiv
_atom_site_adp_type
_atom_site_occupancy
Zn1    Zn    0.97092   0.86870   0.00083   0.01267  Uiso   1.00
Zn2    Zn    0.13130   0.02908   0.49917   0.01267  Uiso   1.00
Zn3    Zn    0.02908   0.13130   0.99917   0.01267  Uiso   1.00
Zn4    Zn    0.86870   0.97092   0.50083   0.01267  Uiso   1.00
Zn5    Zn    0.10390   0.89610   0.25000   0.01267  Uiso   1.00
Zn6    Zn    0.89610   0.10390   0.75000   0.01267  Uiso   1.00
H1     H     0.99050   0.91350   0.44990   0.01267  Uiso   1.00
H2     H     0.06250   0.43390   0.06590   0.01267  Uiso   1.00
H3     H     0.12550   0.54610   0.39150   0.01267  Uiso   1.00
H4     H     0.12860   0.35300   0.48360   0.01267  Uiso   1.00
H5     H     0.08650   0.00950   0.05010   0.01267  Uiso   1.00
H6     H     0.56610   0.93750   0.43410   0.01267  Uiso   1.00
H7     H     0.45390   0.87450   0.10850   0.01267  Uiso   1.00
H8     H     0.64700   0.87140   0.01640   0.01267  Uiso   1.00
H9     H     0.00950   0.08650   0.55010   0.01267  Uiso   1.00
H10    H     0.93750   0.56610   0.93410   0.01267  Uiso   1.00
H11    H     0.87450   0.45390   0.60850   0.01267  Uiso   1.00
H12    H     0.87140   0.64700   0.51640   0.01267  Uiso   1.00
H13    H     0.91350   0.99050   0.94990   0.01267  Uiso   1.00
H14    H     0.43390   0.06250   0.56590   0.01267  Uiso   1.00
H15    H     0.54610   0.12550   0.89150   0.01267  Uiso   1.00
H16    H     0.35300   0.12860   0.98360   0.01267  Uiso   1.00
C1     C     0.09647   0.27687   0.32790   0.01267  Uiso   1.00
C2     C     0.07591   0.29991   0.20460   0.01267  Uiso   1.00
C3     C     0.07442   0.41802   0.14830   0.01267  Uiso   1.00
C4     C     0.09172   0.50872   0.22150   0.01267  Uiso   1.00
C5     C     0.11270   0.48310   0.34550   0.01267  Uiso   1.00
C6     C     0.11530   0.36870   0.40140   0.01267  Uiso   1.00
C7     C     0.08863   0.63983   0.17000   0.01267  Uiso   1.00
C8     C     0.72313   0.90353   0.17210   0.01267  Uiso   1.00
C9     C     0.70009   0.92409   0.29540   0.01267  Uiso   1.00
C10    C     0.58198   0.92558   0.35170   0.01267  Uiso   1.00
C11    C     0.49128   0.90828   0.27850   0.01267  Uiso   1.00
C12    C     0.51690   0.88730   0.15450   0.01267  Uiso   1.00
C13    C     0.63130   0.88470   0.09860   0.01267  Uiso   1.00
C14    C     0.36017   0.91137   0.33000   0.01267  Uiso   1.00
C15    C     0.90353   0.72313   0.67210   0.01267  Uiso   1.00
C16    C     0.92409   0.70009   0.79540   0.01267  Uiso   1.00
C17    C     0.92558   0.58198   0.85170   0.01267  Uiso   1.00
C18    C     0.90828   0.49128   0.77850   0.01267  Uiso   1.00
C19    C     0.88730   0.51690   0.65450   0.01267  Uiso   1.00
C20    C     0.88470   0.63130   0.59860   0.01267  Uiso   1.00
C21    C     0.91137   0.36017   0.83000   0.01267  Uiso   1.00
C22    C     0.27687   0.09647   0.82790   0.01267  Uiso   1.00
C23    C     0.29991   0.07591   0.70460   0.01267  Uiso   1.00
C24    C     0.41802   0.07442   0.64830   0.01267  Uiso   1.00
C25    C     0.50872   0.09172   0.72150   0.01267  Uiso   1.00
C26    C     0.48310   0.11270   0.84550   0.01267  Uiso   1.00
C27    C     0.36870   0.11530   0.90140   0.01267  Uiso   1.00
C28    C     0.63983   0.08863   0.67000   0.01267  Uiso   1.00
N1     N     0.09294   0.15754   0.35530   0.01267  Uiso   1.00
N2     N     0.07141   0.10901   0.25480   0.01267  Uiso   1.00
N3     N     0.06156   0.19136   0.16130   0.01267  Uiso   1.00
N4     N     0.84246   0.90706   0.14470   0.01267  Uiso   1.00
N5     N     0.89099   0.92859   0.24520   0.01267  Uiso   1.00
N6     N     0.80864   0.93844   0.33870   0.01267  Uiso   1.00
N7     N     0.90706   0.84246   0.64470   0.01267  Uiso   1.00
N8     N     0.92859   0.89099   0.74520   0.01267  Uiso   1.00
N9     N     0.93844   0.80864   0.83870   0.01267  Uiso   1.00
N10    N     0.15754   0.09294   0.85530   0.01267  Uiso   1.00
N11    N     0.10901   0.07141   0.75480   0.01267  Uiso   1.00
N12    N     0.19136   0.06156   0.66130   0.01267  Uiso   1.00
O1     O     0.13079   0.70419   0.23810   0.01267  Uiso   1.00
O2     O     0.04505   0.67325   0.06710   0.01267  Uiso   1.00
O3     O     0.07051   0.89621   0.43390   0.01267  Uiso   1.00
O4     O     0.29581   0.86921   0.26190   0.01267  Uiso   1.00
O5     O     0.32675   0.95495   0.43290   0.01267  Uiso   1.00
O6     O     0.10379   0.92949   0.06610   0.01267  Uiso   1.00
O7     O     0.86921   0.29581   0.76190   0.01267  Uiso   1.00
O8     O     0.95495   0.32675   0.93290   0.01267  Uiso   1.00
O9     O     0.92949   0.10379   0.56610   0.01267  Uiso   1.00
O10    O     0.70419   0.13079   0.73810   0.01267  Uiso   1.00
O11    O     0.67325   0.04505   0.56710   0.01267  Uiso   1.00
O12    O     0.89621   0.07051   0.93390   0.01267  Uiso   1.00
