data_LIQGEY_clean
_audit_creation_date              2014-07-02
_audit_creation_method            'Materials Studio'
_symmetry_space_group_name_H-M    'P1'
_symmetry_Int_Tables_number       1
_symmetry_cell_setting            triclinic
loop_
_symmetry_equiv_pos_as_xyz
  x,y,z
_cell_length_a                    6.6229
_cell_length_b                    10.1587
_cell_length_c                    16.6783
_cell_angle_alpha                 90.0000
_cell_angle_beta                  90.0000
_cell_angle_gamma                 93.9410
loop_
_atom_site_label
_atom_site_type_symbol
_atom_site_fract_x
_atom_site_fract_y
_atom_site_fract_z
_atom_site_U_iso_or_equiv
_atom_site_adp_type
_atom_site_occupancy
Ag1    Ag    0.64765   0.54659   0.44176   0.01267  Uiso   1.00
Ag2    Ag    0.22320   0.56143   0.43858   0.01267  Uiso   1.00
Ag3    Ag    0.78099   0.94036   0.79802   0.01267  Uiso   1.00
Ag4    Ag    0.35471   0.95273   0.79396   0.01267  Uiso   1.00
Ag5    Ag    0.40571   0.83591   0.44221   0.01267  Uiso   1.00
Ag6    Ag    0.59127   0.66348   0.79549   0.01267  Uiso   1.00
Ag7    Ag    0.96770   0.14500   0.47266   0.01267  Uiso   1.00
Ag8    Ag    0.59140   0.06928   0.66092   0.01267  Uiso   1.00
Ag9    Ag    0.41010   0.43179   0.57511   0.01267  Uiso   1.00
Ag10   Ag    0.35235   0.45341   0.94176   0.01267  Uiso   1.00
Ag11   Ag    0.77680   0.43857   0.93858   0.01267  Uiso   1.00
Ag12   Ag    0.21901   0.05964   0.29802   0.01267  Uiso   1.00
Ag13   Ag    0.64529   0.04727   0.29396   0.01267  Uiso   1.00
Ag14   Ag    0.59429   0.16409   0.94221   0.01267  Uiso   1.00
Ag15   Ag    0.40873   0.33652   0.29549   0.01267  Uiso   1.00
Ag16   Ag    0.03230   0.85500   0.97266   0.01267  Uiso   1.00
Ag17   Ag    0.40860   0.93072   0.16092   0.01267  Uiso   1.00
Ag18   Ag    0.58990   0.56821   0.07511   0.01267  Uiso   1.00
P1     P     0.91750   0.33260   0.32410   0.01267  Uiso   1.00
P2     P     0.91670   0.83480   0.41560   0.01267  Uiso   1.00
P3     P     0.08250   0.66740   0.82410   0.01267  Uiso   1.00
P4     P     0.08330   0.16520   0.91560   0.01267  Uiso   1.00
C1     C     0.54600   0.85080   0.71470   0.01267  Uiso   1.00
C2     C     0.53300   0.78400   0.65140   0.01267  Uiso   1.00
C3     C     0.48100   0.71480   0.58330   0.01267  Uiso   1.00
C4     C     0.42900   0.64540   0.52590   0.01267  Uiso   1.00
C5     C     0.45400   0.14920   0.21470   0.01267  Uiso   1.00
C6     C     0.46700   0.21600   0.15140   0.01267  Uiso   1.00
C7     C     0.51900   0.28520   0.08330   0.01267  Uiso   1.00
C8     C     0.57100   0.35460   0.02590   0.01267  Uiso   1.00
N1     N     0.08170   0.06130   0.64150   0.01267  Uiso   1.00
N2     N     0.91830   0.93870   0.14150   0.01267  Uiso   1.00
O1     O     0.23000   0.04560   0.59750   0.01267  Uiso   1.00
O2     O     0.05600   0.03000   0.70730   0.01267  Uiso   1.00
O3     O     0.90900   0.11010   0.60560   0.01267  Uiso   1.00
O4     O     0.94800   0.19120   0.33770   0.01267  Uiso   1.00
O5     O     0.72960   0.37480   0.35460   0.01267  Uiso   1.00
O6     O     0.88500   0.84570   0.50530   0.01267  Uiso   1.00
O7     O     0.10100   0.92210   0.39860   0.01267  Uiso   1.00
O8     O     0.93910   0.68590   0.39760   0.01267  Uiso   1.00
O9     O     0.72680   0.88490   0.37270   0.01267  Uiso   1.00
O10    O     0.77000   0.95440   0.09750   0.01267  Uiso   1.00
O11    O     0.94400   0.97000   0.20730   0.01267  Uiso   1.00
O12    O     0.09100   0.88990   0.10560   0.01267  Uiso   1.00
O13    O     0.05200   0.80880   0.83770   0.01267  Uiso   1.00
O14    O     0.27040   0.62520   0.85460   0.01267  Uiso   1.00
O15    O     0.11500   0.15430   0.00530   0.01267  Uiso   1.00
O16    O     0.89900   0.07790   0.89860   0.01267  Uiso   1.00
O17    O     0.06090   0.31410   0.89760   0.01267  Uiso   1.00
O18    O     0.27320   0.11510   0.87270   0.01267  Uiso   1.00
F1     F     0.88890   0.33390   0.22870   0.01267  Uiso   1.00
F2     F     0.11320   0.42290   0.33630   0.01267  Uiso   1.00
F3     F     0.11110   0.66610   0.72870   0.01267  Uiso   1.00
F4     F     0.88680   0.57710   0.83630   0.01267  Uiso   1.00
