data_LIXNIP_clean
_audit_creation_date              2014-07-02
_audit_creation_method            'Materials Studio'
_symmetry_space_group_name_H-M    'P1'
_symmetry_Int_Tables_number       1
_symmetry_cell_setting            triclinic
loop_
_symmetry_equiv_pos_as_xyz
  x,y,z
_cell_length_a                    7.5273
_cell_length_b                    7.5273
_cell_length_c                    15.1440
_cell_angle_alpha                 95.6633
_cell_angle_beta                  95.6633
_cell_angle_gamma                 105.6570
loop_
_atom_site_label
_atom_site_type_symbol
_atom_site_fract_x
_atom_site_fract_y
_atom_site_fract_z
_atom_site_U_iso_or_equiv
_atom_site_adp_type
_atom_site_occupancy
K1     K     0.58770   0.52410   0.63570   0.01267  Uiso   1.00
K2     K     0.52410   0.58770   0.13570   0.01267  Uiso   1.00
In1    In    0.86630   0.03150   0.99710   0.01267  Uiso   1.00
In2    In    0.03150   0.86630   0.49710   0.01267  Uiso   1.00
C1     C     0.77380   0.76920   0.82900   0.01267  Uiso   1.00
C2     C     0.58300   0.79480   0.83960   0.01267  Uiso   1.00
C3     C     0.46630   0.85090   0.03010   0.01267  Uiso   1.00
C4     C     0.42840   0.94040   0.94850   0.01267  Uiso   1.00
C5     C     0.59180   0.12380   0.84010   0.01267  Uiso   1.00
C6     C     0.78630   0.22090   0.82390   0.01267  Uiso   1.00
C7     C     0.11100   0.32880   0.89530   0.01267  Uiso   1.00
C8     C     0.23840   0.31720   0.97660   0.01267  Uiso   1.00
C9     C     0.87720   0.43960   0.96520   0.01267  Uiso   1.00
C10    C     0.83290   0.40510   0.05920   0.01267  Uiso   1.00
C11    C     0.76920   0.77380   0.32900   0.01267  Uiso   1.00
C12    C     0.79480   0.58300   0.33960   0.01267  Uiso   1.00
C13    C     0.85090   0.46630   0.53010   0.01267  Uiso   1.00
C14    C     0.94040   0.42840   0.44850   0.01267  Uiso   1.00
C15    C     0.12380   0.59180   0.34010   0.01267  Uiso   1.00
C16    C     0.22090   0.78630   0.32390   0.01267  Uiso   1.00
C17    C     0.32880   0.11100   0.39530   0.01267  Uiso   1.00
C18    C     0.31720   0.23840   0.47660   0.01267  Uiso   1.00
C19    C     0.43960   0.87720   0.46520   0.01267  Uiso   1.00
C20    C     0.40510   0.83290   0.55920   0.01267  Uiso   1.00
N1     N     0.58700   0.97080   0.89560   0.01267  Uiso   1.00
N2     N     0.91470   0.28250   0.90990   0.01267  Uiso   1.00
N3     N     0.97080   0.58700   0.39560   0.01267  Uiso   1.00
N4     N     0.28250   0.91470   0.40990   0.01267  Uiso   1.00
O1     O     0.91320   0.85940   0.88740   0.01267  Uiso   1.00
O2     O     0.78270   0.65670   0.76800   0.01267  Uiso   1.00
O3     O     0.63340   0.84420   0.05210   0.01267  Uiso   1.00
O4     O     0.33440   0.78480   0.07260   0.01267  Uiso   1.00
O5     O     0.16200   0.20280   0.02830   0.01267  Uiso   1.00
O6     O     0.40320   0.40860   0.98770   0.01267  Uiso   1.00
O7     O     0.80110   0.24190   0.08090   0.01267  Uiso   1.00
O8     O     0.82160   0.54020   0.11030   0.01267  Uiso   1.00
O9     O     0.85940   0.91320   0.38740   0.01267  Uiso   1.00
O10    O     0.65670   0.78270   0.26800   0.01267  Uiso   1.00
O11    O     0.84420   0.63340   0.55210   0.01267  Uiso   1.00
O12    O     0.78480   0.33440   0.57260   0.01267  Uiso   1.00
O13    O     0.20280   0.16200   0.52830   0.01267  Uiso   1.00
O14    O     0.40860   0.40320   0.48770   0.01267  Uiso   1.00
O15    O     0.24190   0.80110   0.58090   0.01267  Uiso   1.00
O16    O     0.54020   0.82160   0.61030   0.01267  Uiso   1.00
