data_LOFZUB_clean
_audit_creation_date              2014-07-02
_audit_creation_method            'Materials Studio'
_symmetry_space_group_name_H-M    'P1'
_symmetry_Int_Tables_number       1
_symmetry_cell_setting            triclinic
loop_
_symmetry_equiv_pos_as_xyz
  x,y,z
_cell_length_a                    9.4537
_cell_length_b                    18.7732
_cell_length_c                    18.7732
_cell_angle_alpha                 90.0000
_cell_angle_beta                  90.0000
_cell_angle_gamma                 90.0000
loop_
_atom_site_label
_atom_site_type_symbol
_atom_site_fract_x
_atom_site_fract_y
_atom_site_fract_z
_atom_site_U_iso_or_equiv
_atom_site_adp_type
_atom_site_occupancy
Al1    Al    0.91910   0.93588   0.33432   0.01267  Uiso   1.00
Al2    Al    0.84220   0.83599   0.54423   0.01267  Uiso   1.00
Al3    Al    0.66420   0.05070   0.56519   0.01267  Uiso   1.00
Al4    Al    0.91910   0.56412   0.16568   0.01267  Uiso   1.00
Al5    Al    0.84220   0.66401   0.95577   0.01267  Uiso   1.00
Al6    Al    0.66420   0.44930   0.93481   0.01267  Uiso   1.00
Al7    Al    0.91910   0.16568   0.93588   0.01267  Uiso   1.00
Al8    Al    0.84220   0.95577   0.83599   0.01267  Uiso   1.00
Al9    Al    0.66420   0.93481   0.05070   0.01267  Uiso   1.00
Al10   Al    0.91910   0.33432   0.56412   0.01267  Uiso   1.00
Al11   Al    0.84220   0.54423   0.66401   0.01267  Uiso   1.00
Al12   Al    0.66420   0.56519   0.44930   0.01267  Uiso   1.00
Al13   Al    0.08090   0.06412   0.66568   0.01267  Uiso   1.00
Al14   Al    0.15780   0.16401   0.45577   0.01267  Uiso   1.00
Al15   Al    0.33580   0.94930   0.43481   0.01267  Uiso   1.00
Al16   Al    0.08090   0.43588   0.83432   0.01267  Uiso   1.00
Al17   Al    0.15780   0.33599   0.04423   0.01267  Uiso   1.00
Al18   Al    0.33580   0.55070   0.06519   0.01267  Uiso   1.00
Al19   Al    0.08090   0.83432   0.06412   0.01267  Uiso   1.00
Al20   Al    0.15780   0.04423   0.16401   0.01267  Uiso   1.00
Al21   Al    0.33580   0.06519   0.94930   0.01267  Uiso   1.00
Al22   Al    0.08090   0.66568   0.43588   0.01267  Uiso   1.00
Al23   Al    0.15780   0.45577   0.33599   0.01267  Uiso   1.00
Al24   Al    0.33580   0.43481   0.55070   0.01267  Uiso   1.00
P1     P     0.66370   0.93587   0.44232   0.01267  Uiso   1.00
P2     P     0.83780   0.94979   0.66685   0.01267  Uiso   1.00
P3     P     0.90580   0.16580   0.56624   0.01267  Uiso   1.00
P4     P     0.66370   0.56413   0.05768   0.01267  Uiso   1.00
P5     P     0.83780   0.55021   0.83315   0.01267  Uiso   1.00
P6     P     0.90580   0.33420   0.93376   0.01267  Uiso   1.00
P7     P     0.66370   0.05768   0.93587   0.01267  Uiso   1.00
P8     P     0.83780   0.83315   0.94979   0.01267  Uiso   1.00
P9     P     0.90580   0.93376   0.16580   0.01267  Uiso   1.00
P10    P     0.66370   0.44232   0.56413   0.01267  Uiso   1.00
P11    P     0.83780   0.66685   0.55021   0.01267  Uiso   1.00
P12    P     0.90580   0.56624   0.33420   0.01267  Uiso   1.00
P13    P     0.33630   0.06413   0.55768   0.01267  Uiso   1.00
P14    P     0.16220   0.05021   0.33315   0.01267  Uiso   1.00
P15    P     0.09420   0.83420   0.43376   0.01267  Uiso   1.00
P16    P     0.33630   0.43587   0.94232   0.01267  Uiso   1.00
P17    P     0.16220   0.44979   0.16685   0.01267  Uiso   1.00
P18    P     0.09420   0.66580   0.06624   0.01267  Uiso   1.00
P19    P     0.33630   0.94232   0.06413   0.01267  Uiso   1.00
P20    P     0.16220   0.16685   0.05021   0.01267  Uiso   1.00
P21    P     0.09420   0.06624   0.83420   0.01267  Uiso   1.00
P22    P     0.33630   0.55768   0.43587   0.01267  Uiso   1.00
P23    P     0.16220   0.33315   0.44979   0.01267  Uiso   1.00
P24    P     0.09420   0.43376   0.66580   0.01267  Uiso   1.00
O1     O     0.75370   0.94260   0.37570   0.01267  Uiso   1.00
O2     O     0.51220   0.92460   0.41930   0.01267  Uiso   1.00
O3     O     0.70970   0.87270   0.48720   0.01267  Uiso   1.00
O4     O     0.67610   0.00500   0.48380   0.01267  Uiso   1.00
O5     O     0.98110   0.98490   0.65670   0.01267  Uiso   1.00
O6     O     0.72250   0.99740   0.63590   0.01267  Uiso   1.00
O7     O     0.84020   0.87790   0.62920   0.01267  Uiso   1.00
O8     O     0.80680   0.93760   0.74420   0.01267  Uiso   1.00
O9     O     0.98730   0.15510   0.49790   0.01267  Uiso   1.00
O10    O     0.98540   0.13700   0.62970   0.01267  Uiso   1.00
O11    O     0.76370   0.12970   0.55990   0.01267  Uiso   1.00
O12    O     0.87930   0.24440   0.57950   0.01267  Uiso   1.00
O13    O     0.75370   0.55740   0.12430   0.01267  Uiso   1.00
O14    O     0.51220   0.57540   0.08070   0.01267  Uiso   1.00
O15    O     0.70970   0.62730   0.01280   0.01267  Uiso   1.00
O16    O     0.67610   0.49500   0.01620   0.01267  Uiso   1.00
O17    O     0.98110   0.51510   0.84330   0.01267  Uiso   1.00
O18    O     0.72250   0.50260   0.86410   0.01267  Uiso   1.00
O19    O     0.84020   0.62210   0.87080   0.01267  Uiso   1.00
O20    O     0.80680   0.56240   0.75580   0.01267  Uiso   1.00
O21    O     0.98730   0.34490   0.00210   0.01267  Uiso   1.00
O22    O     0.98540   0.36300   0.87030   0.01267  Uiso   1.00
O23    O     0.76370   0.37030   0.94010   0.01267  Uiso   1.00
O24    O     0.87930   0.25560   0.92050   0.01267  Uiso   1.00
O25    O     0.75370   0.12430   0.94260   0.01267  Uiso   1.00
O26    O     0.51220   0.08070   0.92460   0.01267  Uiso   1.00
O27    O     0.70970   0.01280   0.87270   0.01267  Uiso   1.00
O28    O     0.67610   0.01620   0.00500   0.01267  Uiso   1.00
O29    O     0.98110   0.84330   0.98490   0.01267  Uiso   1.00
O30    O     0.72250   0.86410   0.99740   0.01267  Uiso   1.00
O31    O     0.84020   0.87080   0.87790   0.01267  Uiso   1.00
O32    O     0.80680   0.75580   0.93760   0.01267  Uiso   1.00
O33    O     0.98730   0.00210   0.15510   0.01267  Uiso   1.00
O34    O     0.98540   0.87030   0.13700   0.01267  Uiso   1.00
O35    O     0.76370   0.94010   0.12970   0.01267  Uiso   1.00
O36    O     0.87930   0.92050   0.24440   0.01267  Uiso   1.00
O37    O     0.75370   0.37570   0.55740   0.01267  Uiso   1.00
O38    O     0.51220   0.41930   0.57540   0.01267  Uiso   1.00
O39    O     0.70970   0.48720   0.62730   0.01267  Uiso   1.00
O40    O     0.67610   0.48380   0.49500   0.01267  Uiso   1.00
O41    O     0.98110   0.65670   0.51510   0.01267  Uiso   1.00
O42    O     0.72250   0.63590   0.50260   0.01267  Uiso   1.00
O43    O     0.84020   0.62920   0.62210   0.01267  Uiso   1.00
O44    O     0.80680   0.74420   0.56240   0.01267  Uiso   1.00
O45    O     0.98730   0.49790   0.34490   0.01267  Uiso   1.00
O46    O     0.98540   0.62970   0.36300   0.01267  Uiso   1.00
O47    O     0.76370   0.55990   0.37030   0.01267  Uiso   1.00
O48    O     0.87930   0.57950   0.25560   0.01267  Uiso   1.00
O49    O     0.24630   0.05740   0.62430   0.01267  Uiso   1.00
O50    O     0.48780   0.07540   0.58070   0.01267  Uiso   1.00
O51    O     0.29030   0.12730   0.51280   0.01267  Uiso   1.00
O52    O     0.32390   0.99500   0.51620   0.01267  Uiso   1.00
O53    O     0.01890   0.01510   0.34330   0.01267  Uiso   1.00
O54    O     0.27750   0.00260   0.36410   0.01267  Uiso   1.00
O55    O     0.15980   0.12210   0.37080   0.01267  Uiso   1.00
O56    O     0.19320   0.06240   0.25580   0.01267  Uiso   1.00
O57    O     0.01270   0.84490   0.50210   0.01267  Uiso   1.00
O58    O     0.01460   0.86300   0.37030   0.01267  Uiso   1.00
O59    O     0.23630   0.87030   0.44010   0.01267  Uiso   1.00
O60    O     0.12070   0.75560   0.42050   0.01267  Uiso   1.00
O61    O     0.24630   0.44260   0.87570   0.01267  Uiso   1.00
O62    O     0.48780   0.42460   0.91930   0.01267  Uiso   1.00
O63    O     0.29030   0.37270   0.98720   0.01267  Uiso   1.00
O64    O     0.32390   0.50500   0.98380   0.01267  Uiso   1.00
O65    O     0.01890   0.48490   0.15670   0.01267  Uiso   1.00
O66    O     0.27750   0.49740   0.13590   0.01267  Uiso   1.00
O67    O     0.15980   0.37790   0.12920   0.01267  Uiso   1.00
O68    O     0.19320   0.43760   0.24420   0.01267  Uiso   1.00
O69    O     0.01270   0.65510   0.99790   0.01267  Uiso   1.00
O70    O     0.01460   0.63700   0.12970   0.01267  Uiso   1.00
O71    O     0.23630   0.62970   0.05990   0.01267  Uiso   1.00
O72    O     0.12070   0.74440   0.07950   0.01267  Uiso   1.00
O73    O     0.24630   0.87570   0.05740   0.01267  Uiso   1.00
O74    O     0.48780   0.91930   0.07540   0.01267  Uiso   1.00
O75    O     0.29030   0.98720   0.12730   0.01267  Uiso   1.00
O76    O     0.32390   0.98380   0.99500   0.01267  Uiso   1.00
O77    O     0.01890   0.15670   0.01510   0.01267  Uiso   1.00
O78    O     0.27750   0.13590   0.00260   0.01267  Uiso   1.00
O79    O     0.15980   0.12920   0.12210   0.01267  Uiso   1.00
O80    O     0.19320   0.24420   0.06240   0.01267  Uiso   1.00
O81    O     0.01270   0.99790   0.84490   0.01267  Uiso   1.00
O82    O     0.01460   0.12970   0.86300   0.01267  Uiso   1.00
O83    O     0.23630   0.05990   0.87030   0.01267  Uiso   1.00
O84    O     0.12070   0.07950   0.75560   0.01267  Uiso   1.00
O85    O     0.24630   0.62430   0.44260   0.01267  Uiso   1.00
O86    O     0.48780   0.58070   0.42460   0.01267  Uiso   1.00
O87    O     0.29030   0.51280   0.37270   0.01267  Uiso   1.00
O88    O     0.32390   0.51620   0.50500   0.01267  Uiso   1.00
O89    O     0.01890   0.34330   0.48490   0.01267  Uiso   1.00
O90    O     0.27750   0.36410   0.49740   0.01267  Uiso   1.00
O91    O     0.15980   0.37080   0.37790   0.01267  Uiso   1.00
O92    O     0.19320   0.25580   0.43760   0.01267  Uiso   1.00
O93    O     0.01270   0.50210   0.65510   0.01267  Uiso   1.00
O94    O     0.01460   0.37030   0.63700   0.01267  Uiso   1.00
O95    O     0.23630   0.44010   0.62970   0.01267  Uiso   1.00
O96    O     0.12070   0.42050   0.74440   0.01267  Uiso   1.00
