data_LOLQIM_clean
_audit_creation_date              2014-07-02
_audit_creation_method            'Materials Studio'
_symmetry_space_group_name_H-M    'P1'
_symmetry_Int_Tables_number       1
_symmetry_cell_setting            triclinic
loop_
_symmetry_equiv_pos_as_xyz
  x,y,z
_cell_length_a                    9.5760
_cell_length_b                    9.9820
_cell_length_c                    10.0000
_cell_angle_alpha                 107.6700
_cell_angle_beta                  97.9600
_cell_angle_gamma                 114.8700
loop_
_atom_site_label
_atom_site_type_symbol
_atom_site_fract_x
_atom_site_fract_y
_atom_site_fract_z
_atom_site_U_iso_or_equiv
_atom_site_adp_type
_atom_site_occupancy
Zn1    Zn    0.68782   0.20884   0.65898   0.01267  Uiso   1.00
Zn2    Zn    0.31218   0.79116   0.34102   0.01267  Uiso   1.00
Ge1    Ge    0.13641   0.96694   0.88455   0.01267  Uiso   1.00
Ge2    Ge    0.86359   0.03306   0.11545   0.01267  Uiso   1.00
P1     P     0.82540   0.59980   0.77090   0.01267  Uiso   1.00
P2     P     0.66380   0.97160   0.34050   0.01267  Uiso   1.00
P3     P     0.84610   0.03010   0.80710   0.01267  Uiso   1.00
P4     P     0.17460   0.40020   0.22910   0.01267  Uiso   1.00
P5     P     0.33620   0.02840   0.65950   0.01267  Uiso   1.00
P6     P     0.15390   0.96990   0.19290   0.01267  Uiso   1.00
H1     H     0.80780   0.92240   0.49730   0.01267  Uiso   1.00
H2     H     0.73990   0.79450   0.55940   0.01267  Uiso   1.00
H3     H     0.61840   0.60760   0.60050   0.01267  Uiso   1.00
H4     H     0.19220   0.07760   0.50270   0.01267  Uiso   1.00
H5     H     0.26010   0.20550   0.44060   0.01267  Uiso   1.00
H6     H     0.38160   0.39240   0.39950   0.01267  Uiso   1.00
O1     O     0.83050   0.44270   0.71260   0.01267  Uiso   1.00
O2     O     0.69790   0.60450   0.66620   0.01267  Uiso   1.00
O3     O     0.99480   0.73620   0.80570   0.01267  Uiso   1.00
O4     O     0.78010   0.61590   0.92140   0.01267  Uiso   1.00
O5     O     0.66080   0.11250   0.45140   0.01267  Uiso   1.00
O6     O     0.69540   0.00280   0.20460   0.01267  Uiso   1.00
O7     O     0.50630   0.81360   0.29780   0.01267  Uiso   1.00
O8     O     0.81130   0.95270   0.40850   0.01267  Uiso   1.00
O9     O     0.82130   0.15930   0.77880   0.01267  Uiso   1.00
O10    O     0.77960   0.88250   0.65190   0.01267  Uiso   1.00
O11    O     0.75550   0.96360   0.90670   0.01267  Uiso   1.00
O12    O     0.02830   0.09390   0.87060   0.01267  Uiso   1.00
O13    O     0.16950   0.55730   0.28740   0.01267  Uiso   1.00
O14    O     0.30210   0.39550   0.33380   0.01267  Uiso   1.00
O15    O     0.00520   0.26380   0.19430   0.01267  Uiso   1.00
O16    O     0.21990   0.38410   0.07860   0.01267  Uiso   1.00
O17    O     0.33920   0.88750   0.54860   0.01267  Uiso   1.00
O18    O     0.30460   0.99720   0.79540   0.01267  Uiso   1.00
O19    O     0.49370   0.18640   0.70220   0.01267  Uiso   1.00
O20    O     0.18870   0.04730   0.59150   0.01267  Uiso   1.00
O21    O     0.17870   0.84070   0.22120   0.01267  Uiso   1.00
O22    O     0.22040   0.11750   0.34810   0.01267  Uiso   1.00
O23    O     0.24450   0.03640   0.09330   0.01267  Uiso   1.00
O24    O     0.97170   0.90610   0.12940   0.01267  Uiso   1.00
