data_LOQLIN_clean
_audit_creation_date              2014-07-02
_audit_creation_method            'Materials Studio'
_symmetry_space_group_name_H-M    'P1'
_symmetry_Int_Tables_number       1
_symmetry_cell_setting            triclinic
loop_
_symmetry_equiv_pos_as_xyz
  x,y,z
_cell_length_a                    6.7423
_cell_length_b                    21.1760
_cell_length_c                    21.1869
_cell_angle_alpha                 119.9830
_cell_angle_beta                  90.0000
_cell_angle_gamma                 90.0000
loop_
_atom_site_label
_atom_site_type_symbol
_atom_site_fract_x
_atom_site_fract_y
_atom_site_fract_z
_atom_site_U_iso_or_equiv
_atom_site_adp_type
_atom_site_occupancy
Ga1    Ga    0.50000   0.50000   0.50000   0.01267  Uiso   1.00
Ga2    Ga    0.00000   0.50000   0.50000   0.01267  Uiso   1.00
Ga3    Ga    0.00000   0.00000   0.50000   0.01267  Uiso   1.00
Ga4    Ga    0.50000   0.00000   0.50000   0.01267  Uiso   1.00
Ga5    Ga    0.50000   0.00000  -0.00000   0.01267  Uiso   1.00
Ga6    Ga    0.00000   0.00000   0.00000   0.01267  Uiso   1.00
H1     H     0.44430   0.67853   0.46946   0.01267  Uiso   1.00
H2     H     0.44430   0.32248   0.29356   0.01267  Uiso   1.00
H3     H     0.44430   0.20768   0.18388   0.01267  Uiso   1.00
H4     H     0.94430   0.32147   0.53054   0.01267  Uiso   1.00
H5     H     0.94430   0.67752   0.70644   0.01267  Uiso   1.00
H6     H     0.94430   0.79232   0.81612   0.01267  Uiso   1.00
H7     H     0.05570   0.79093   0.46946   0.01267  Uiso   1.00
H8     H     0.05570   0.97108   0.29356   0.01267  Uiso   1.00
H9     H     0.05570   0.97620   0.18388   0.01267  Uiso   1.00
H10    H     0.55570   0.20907   0.53054   0.01267  Uiso   1.00
H11    H     0.55570   0.02892   0.70644   0.01267  Uiso   1.00
H12    H     0.55570   0.02380   0.81612   0.01267  Uiso   1.00
H13    H     0.55570   0.32147   0.53054   0.01267  Uiso   1.00
H14    H     0.55570   0.67752   0.70644   0.01267  Uiso   1.00
H15    H     0.55570   0.79232   0.81612   0.01267  Uiso   1.00
H16    H     0.05570   0.67853   0.46946   0.01267  Uiso   1.00
H17    H     0.05570   0.32248   0.29356   0.01267  Uiso   1.00
H18    H     0.05570   0.20768   0.18388   0.01267  Uiso   1.00
H19    H     0.94430   0.20907   0.53054   0.01267  Uiso   1.00
H20    H     0.94430   0.02892   0.70644   0.01267  Uiso   1.00
H21    H     0.94430   0.02380   0.81612   0.01267  Uiso   1.00
H22    H     0.44430   0.79093   0.46946   0.01267  Uiso   1.00
H23    H     0.44430   0.97108   0.29356   0.01267  Uiso   1.00
H24    H     0.44430   0.97620   0.18388   0.01267  Uiso   1.00
C1     C     0.57018   0.70167   0.46946   0.01267  Uiso   1.00
C2     C     0.57018   0.29885   0.27098   0.01267  Uiso   1.00
C3     C     0.57018   0.23132   0.20646   0.01267  Uiso   1.00
C4     C     0.07018   0.29833   0.53054   0.01267  Uiso   1.00
C5     C     0.07018   0.70115   0.72902   0.01267  Uiso   1.00
C6     C     0.07018   0.76868   0.79354   0.01267  Uiso   1.00
C7     C     0.92982   0.76779   0.46946   0.01267  Uiso   1.00
C8     C     0.92982   0.97213   0.27098   0.01267  Uiso   1.00
C9     C     0.92982   0.97514   0.20646   0.01267  Uiso   1.00
C10    C     0.42982   0.23221   0.53054   0.01267  Uiso   1.00
C11    C     0.42982   0.02787   0.72902   0.01267  Uiso   1.00
C12    C     0.42982   0.02486   0.79354   0.01267  Uiso   1.00
C13    C     0.42982   0.29833   0.53054   0.01267  Uiso   1.00
C14    C     0.42982   0.70115   0.72902   0.01267  Uiso   1.00
C15    C     0.42982   0.76868   0.79354   0.01267  Uiso   1.00
C16    C     0.92982   0.70167   0.46946   0.01267  Uiso   1.00
C17    C     0.92982   0.29885   0.27098   0.01267  Uiso   1.00
C18    C     0.92982   0.23132   0.20646   0.01267  Uiso   1.00
C19    C     0.07018   0.23221   0.53054   0.01267  Uiso   1.00
C20    C     0.07018   0.02787   0.72902   0.01267  Uiso   1.00
C21    C     0.07018   0.02486   0.79354   0.01267  Uiso   1.00
C22    C     0.57018   0.76779   0.46946   0.01267  Uiso   1.00
C23    C     0.57018   0.97213   0.27098   0.01267  Uiso   1.00
C24    C     0.57018   0.97514   0.20646   0.01267  Uiso   1.00
C25    C     0.75000   0.59778   0.46946   0.01267  Uiso   1.00
C26    C     0.75000   0.66862   0.46946   0.01267  Uiso   1.00
C27    C     0.75000   0.40498   0.37238   0.01267  Uiso   1.00
C28    C     0.75000   0.33261   0.30324   0.01267  Uiso   1.00
C29    C     0.75000   0.19755   0.17420   0.01267  Uiso   1.00
C30    C     0.75000   0.12519   0.10506   0.01267  Uiso   1.00
C31    C     0.25000   0.40222   0.53054   0.01267  Uiso   1.00
C32    C     0.25000   0.33138   0.53054   0.01267  Uiso   1.00
C33    C     0.25000   0.59502   0.62762   0.01267  Uiso   1.00
C34    C     0.25000   0.66739   0.69676   0.01267  Uiso   1.00
C35    C     0.25000   0.80245   0.82580   0.01267  Uiso   1.00
C36    C     0.25000   0.87481   0.89494   0.01267  Uiso   1.00
C37    C     0.75000   0.87168   0.46946   0.01267  Uiso   1.00
C38    C     0.75000   0.80084   0.46946   0.01267  Uiso   1.00
C39    C     0.75000   0.96740   0.37238   0.01267  Uiso   1.00
C40    C     0.75000   0.97063   0.30324   0.01267  Uiso   1.00
C41    C     0.75000   0.97665   0.17420   0.01267  Uiso   1.00
C42    C     0.75000   0.97987   0.10506   0.01267  Uiso   1.00
C43    C     0.25000   0.12832   0.53054   0.01267  Uiso   1.00
C44    C     0.25000   0.19916   0.53054   0.01267  Uiso   1.00
C45    C     0.25000   0.03260   0.62762   0.01267  Uiso   1.00
C46    C     0.25000   0.02937   0.69676   0.01267  Uiso   1.00
C47    C     0.25000   0.02335   0.82580   0.01267  Uiso   1.00
C48    C     0.25000   0.02013   0.89494   0.01267  Uiso   1.00
O1     O     0.58944   0.56827   0.46946   0.01267  Uiso   1.00
O2     O     0.58944   0.43512   0.40118   0.01267  Uiso   1.00
O3     O     0.58944   0.09504   0.07626   0.01267  Uiso   1.00
O4     O     0.08944   0.43173   0.53054   0.01267  Uiso   1.00
O5     O     0.08944   0.56488   0.59882   0.01267  Uiso   1.00
O6     O     0.08944   0.90496   0.92374   0.01267  Uiso   1.00
O7     O     0.91056   0.90119   0.46946   0.01267  Uiso   1.00
O8     O     0.91056   0.96606   0.40118   0.01267  Uiso   1.00
O9     O     0.91056   0.98122   0.07626   0.01267  Uiso   1.00
O10    O     0.41056   0.09881   0.53054   0.01267  Uiso   1.00
O11    O     0.41056   0.03394   0.59882   0.01267  Uiso   1.00
O12    O     0.41056   0.01878   0.92374   0.01267  Uiso   1.00
O13    O     0.41056   0.43173   0.53054   0.01267  Uiso   1.00
O14    O     0.41056   0.56488   0.59882   0.01267  Uiso   1.00
O15    O     0.41056   0.90496   0.92374   0.01267  Uiso   1.00
O16    O     0.91056   0.56827   0.46946   0.01267  Uiso   1.00
O17    O     0.91056   0.43512   0.40118   0.01267  Uiso   1.00
O18    O     0.91056   0.09504   0.07626   0.01267  Uiso   1.00
O19    O     0.08944   0.09881   0.53054   0.01267  Uiso   1.00
O20    O     0.08944   0.03394   0.59882   0.01267  Uiso   1.00
O21    O     0.08944   0.01878   0.92374   0.01267  Uiso   1.00
O22    O     0.58944   0.90119   0.46946   0.01267  Uiso   1.00
O23    O     0.58944   0.96606   0.40118   0.01267  Uiso   1.00
O24    O     0.58944   0.98122   0.07626   0.01267  Uiso   1.00
O25    O     0.75000   0.50000   0.54600   0.01267  Uiso   1.00
O26    O     0.25000   0.50000   0.45400   0.01267  Uiso   1.00
O27    O     0.75000   0.04600   0.54600   0.01267  Uiso   1.00
O28    O     0.25000   0.95400   0.45400   0.01267  Uiso   1.00
O29    O     0.75000   0.97437   0.94874   0.01267  Uiso   1.00
O30    O     0.25000   0.02563   0.05126   0.01267  Uiso   1.00
