data_LOWPUI_clean5b
_audit_creation_date              2014-07-02
_audit_creation_method            'Materials Studio'
_symmetry_space_group_name_H-M    'P1'
_symmetry_Int_Tables_number       1
_symmetry_cell_setting            triclinic
loop_
_symmetry_equiv_pos_as_xyz
  x,y,z
_cell_length_a                    16.0550
_cell_length_b                    18.7640
_cell_length_c                    18.7640
_cell_angle_alpha                 106.6720
_cell_angle_beta                  102.7580
_cell_angle_gamma                 102.7580
loop_
_atom_site_label
_atom_site_type_symbol
_atom_site_fract_x
_atom_site_fract_y
_atom_site_fract_z
_atom_site_U_iso_or_equiv
_atom_site_adp_type
_atom_site_occupancy
Zn1    Zn    0.02361   0.46134   0.46164   0.01267  Uiso   1.00
Zn2    Zn    0.46937   0.04307   0.04282   0.01267  Uiso   1.00
H3     H     0.27762   0.48212   0.12213   0.01267  Uiso   1.00
H4     H     0.41089   0.17419   0.43857   0.01267  Uiso   1.00
H5     H     0.47141   0.27091   0.50799   0.01267  Uiso   1.00
H6     H     0.21852   0.37512   0.01683   0.01267  Uiso   1.00
H7     H     0.47120   0.50122   0.27361   0.01267  Uiso   1.00
H8     H     0.41259   0.44407   0.17300   0.01267  Uiso   1.00
H9     H     0.21836   0.01719   0.37525   0.01267  Uiso   1.00
H10    H     0.27751   0.12189   0.48173   0.01267  Uiso   1.00
C11    C     0.11129   0.49978   0.11531   0.01267  Uiso   1.00
C12    C     0.18207   0.00091   0.18431   0.01267  Uiso   1.00
C13    C     0.26341   0.48802   0.17681   0.01267  Uiso   1.00
C14    C     0.16949   0.01427   0.25812   0.01267  Uiso   1.00
C15    C     0.38563   0.38404   0.00002   0.01267  Uiso   1.00
C16    C     0.31618   0.31400   0.49940   0.01267  Uiso   1.00
C17    C     0.23413   0.32096   0.01132   0.01267  Uiso   1.00
C18    C     0.32909   0.23968   0.48638   0.01267  Uiso   1.00
C19    C     0.38520   0.00089   0.38493   0.01267  Uiso   1.00
C20    C     0.31624   0.50017   0.31449   0.01267  Uiso   1.00
C21    C     0.23415   0.01200   0.32123   0.01267  Uiso   1.00
C22    C     0.32957   0.48727   0.24022   0.01267  Uiso   1.00
C23    C     0.11130   0.11466   0.49879   0.01267  Uiso   1.00
C24    C     0.18176   0.18381  -0.00015   0.01267  Uiso   1.00
C25    C     0.26303   0.17635   0.48714   0.01267  Uiso   1.00
C26    C     0.16925   0.25773   0.01330   0.01267  Uiso   1.00
N27    N     0.41068   0.22777   0.47516   0.01267  Uiso   1.00
N28    N     0.41114   0.47557   0.22821   0.01267  Uiso   1.00
O29    O     0.10655   0.46097   0.04579   0.01267  Uiso   1.00
O30    O     0.44032   0.46172   0.37710   0.01267  Uiso   1.00
O31    O     0.38910   0.45340   0.03848   0.01267  Uiso   1.00
O32    O     0.05580   0.12413   0.03753   0.01267  Uiso   1.00
O33    O     0.38940   0.04063   0.45409   0.01267  Uiso   1.00
O34    O     0.05486   0.03764   0.12471   0.01267  Uiso   1.00
O35    O     0.10596   0.04503   0.45943   0.01267  Uiso   1.00
O36    O     0.44209   0.37576   0.46224   0.01267  Uiso   1.00
Zn37   Zn    0.52362   0.46134   0.46162   0.01267  Uiso   1.00
Zn38   Zn    0.96937   0.04307   0.04282   0.01267  Uiso   1.00
H39    H     0.77762   0.48212   0.12213   0.01267  Uiso   1.00
H40    H     0.91089   0.17419   0.43857   0.01267  Uiso   1.00
H41    H     0.97141   0.27091   0.50799   0.01267  Uiso   1.00
H42    H     0.71852   0.37512   0.01683   0.01267  Uiso   1.00
H43    H     0.97120   0.50122   0.27361   0.01267  Uiso   1.00
H44    H     0.91259   0.44407   0.17300   0.01267  Uiso   1.00
H45    H     0.71836   0.01719   0.37525   0.01267  Uiso   1.00
H46    H     0.77751   0.12189   0.48173   0.01267  Uiso   1.00
C47    C     0.61129   0.49978   0.11531   0.01267  Uiso   1.00
C48    C     0.68207   0.00091   0.18431   0.01267  Uiso   1.00
C49    C     0.76341   0.48802   0.17681   0.01267  Uiso   1.00
C50    C     0.66949   0.01427   0.25812   0.01267  Uiso   1.00
C51    C     0.88563   0.38404   0.00002   0.01267  Uiso   1.00
C52    C     0.81618   0.31400   0.49940   0.01267  Uiso   1.00
C53    C     0.73413   0.32096   0.01132   0.01267  Uiso   1.00
C54    C     0.82909   0.23968   0.48638   0.01267  Uiso   1.00
C55    C     0.88520   0.00089   0.38493   0.01267  Uiso   1.00
C56    C     0.81624   0.50017   0.31449   0.01267  Uiso   1.00
C57    C     0.73415   0.01200   0.32123   0.01267  Uiso   1.00
C58    C     0.82957   0.48727   0.24022   0.01267  Uiso   1.00
C59    C     0.61130   0.11466   0.49879   0.01267  Uiso   1.00
C60    C     0.68176   0.18381  -0.00015   0.01267  Uiso   1.00
C61    C     0.76303   0.17635   0.48714   0.01267  Uiso   1.00
C62    C     0.66925   0.25773   0.01330   0.01267  Uiso   1.00
N63    N     0.91068   0.22777   0.47516   0.01267  Uiso   1.00
N64    N     0.91114   0.47557   0.22821   0.01267  Uiso   1.00
O65    O     0.60654   0.46098   0.04580   0.01267  Uiso   1.00
O66    O     0.94032   0.46172   0.37709   0.01267  Uiso   1.00
O67    O     0.88910   0.45340   0.03848   0.01267  Uiso   1.00
O68    O     0.55580   0.12413   0.03753   0.01267  Uiso   1.00
O69    O     0.88940   0.04063   0.45409   0.01267  Uiso   1.00
O70    O     0.55486   0.03764   0.12471   0.01267  Uiso   1.00
O71    O     0.60596   0.04503   0.45943   0.01267  Uiso   1.00
O72    O     0.94209   0.37576   0.46224   0.01267  Uiso   1.00
Zn73   Zn    0.02362   0.96133   0.46163   0.01267  Uiso   1.00
Zn74   Zn    0.46937   0.54307   0.04282   0.01267  Uiso   1.00
H75    H     0.27762   0.98212   0.12213   0.01267  Uiso   1.00
H76    H     0.41089   0.67419   0.43857   0.01267  Uiso   1.00
H77    H     0.47141   0.77091   0.50799   0.01267  Uiso   1.00
H78    H     0.21852   0.87512   0.01683   0.01267  Uiso   1.00
H79    H     0.47120   1.00122   0.27361   0.01267  Uiso   1.00
H80    H     0.41259   0.94407   0.17300   0.01267  Uiso   1.00
H81    H     0.21836   0.51719   0.37525   0.01267  Uiso   1.00
H82    H     0.27751   0.62189   0.48173   0.01267  Uiso   1.00
C83    C     0.11129   0.99978   0.11531   0.01267  Uiso   1.00
C84    C     0.18207   0.50091   0.18431   0.01267  Uiso   1.00
C85    C     0.26341   0.98802   0.17681   0.01267  Uiso   1.00
C86    C     0.16949   0.51427   0.25812   0.01267  Uiso   1.00
C87    C     0.38563   0.88404   0.00002   0.01267  Uiso   1.00
C88    C     0.31618   0.81400   0.49940   0.01267  Uiso   1.00
C89    C     0.23413   0.82096   0.01132   0.01267  Uiso   1.00
C90    C     0.32909   0.73968   0.48638   0.01267  Uiso   1.00
C91    C     0.38520   0.50089   0.38493   0.01267  Uiso   1.00
C92    C     0.31624   1.00017   0.31449   0.01267  Uiso   1.00
C93    C     0.23415   0.51200   0.32123   0.01267  Uiso   1.00
C94    C     0.32957   0.98727   0.24022   0.01267  Uiso   1.00
C95    C     0.11130   0.61466   0.49879   0.01267  Uiso   1.00
C96    C     0.18176   0.68381  -0.00015   0.01267  Uiso   1.00
C97    C     0.26303   0.67635   0.48714   0.01267  Uiso   1.00
C98    C     0.16925   0.75773   0.01330   0.01267  Uiso   1.00
N99    N     0.41068   0.72777   0.47516   0.01267  Uiso   1.00
N100   N     0.41114   0.97557   0.22821   0.01267  Uiso   1.00
O101   O     0.10655   0.96098   0.04579   0.01267  Uiso   1.00
O102   O     0.44032   0.96172   0.37710   0.01267  Uiso   1.00
O103   O     0.38910   0.95340   0.03848   0.01267  Uiso   1.00
O104   O     0.05580   0.62413   0.03753   0.01267  Uiso   1.00
O105   O     0.38940   0.54063   0.45409   0.01267  Uiso   1.00
O106   O     0.05486   0.53764   0.12471   0.01267  Uiso   1.00
O107   O     0.10596   0.54503   0.45943   0.01267  Uiso   1.00
O108   O     0.44209   0.87576   0.46224   0.01267  Uiso   1.00
Zn109  Zn    0.52362   0.96133   0.46163   0.01267  Uiso   1.00
Zn110  Zn    0.96937   0.54307   0.04282   0.01267  Uiso   1.00
H111   H     0.77762   0.98212   0.12213   0.01267  Uiso   1.00
H112   H     0.91089   0.67419   0.43857   0.01267  Uiso   1.00
H113   H     0.97141   0.77091   0.50799   0.01267  Uiso   1.00
H114   H     0.71852   0.87512   0.01683   0.01267  Uiso   1.00
H115   H     0.97120   1.00122   0.27361   0.01267  Uiso   1.00
H116   H     0.91259   0.94407   0.17300   0.01267  Uiso   1.00
H117   H     0.71836   0.51719   0.37525   0.01267  Uiso   1.00
H118   H     0.77751   0.62189   0.48173   0.01267  Uiso   1.00
C119   C     0.61129   0.99978   0.11531   0.01267  Uiso   1.00
C120   C     0.68207   0.50091   0.18431   0.01267  Uiso   1.00
C121   C     0.76341   0.98802   0.17681   0.01267  Uiso   1.00
C122   C     0.66949   0.51427   0.25812   0.01267  Uiso   1.00
C123   C     0.88563   0.88404   0.00002   0.01267  Uiso   1.00
C124   C     0.81618   0.81400   0.49940   0.01267  Uiso   1.00
C125   C     0.73413   0.82096   0.01132   0.01267  Uiso   1.00
C126   C     0.82909   0.73968   0.48638   0.01267  Uiso   1.00
C127   C     0.88520   0.50089   0.38493   0.01267  Uiso   1.00
C128   C     0.81624   1.00017   0.31449   0.01267  Uiso   1.00
C129   C     0.73415   0.51200   0.32123   0.01267  Uiso   1.00
C130   C     0.82957   0.98727   0.24022   0.01267  Uiso   1.00
C131   C     0.61130   0.61466   0.49880   0.01267  Uiso   1.00
C132   C     0.68176   0.68381  -0.00015   0.01267  Uiso   1.00
C133   C     0.76303   0.67635   0.48714   0.01267  Uiso   1.00
C134   C     0.66925   0.75773   0.01330   0.01267  Uiso   1.00
N135   N     0.91068   0.72777   0.47516   0.01267  Uiso   1.00
N136   N     0.91114   0.97557   0.22821   0.01267  Uiso   1.00
O137   O     0.60656   0.96097   0.04579   0.01267  Uiso   1.00
O138   O     0.94032   0.96172   0.37710   0.01267  Uiso   1.00
O139   O     0.88910   0.95340   0.03848   0.01267  Uiso   1.00
O140   O     0.55580   0.62413   0.03753   0.01267  Uiso   1.00
O141   O     0.88940   0.54063   0.45409   0.01267  Uiso   1.00
O142   O     0.55486   0.53764   0.12471   0.01267  Uiso   1.00
O143   O     0.60596   0.54503   0.45944   0.01267  Uiso   1.00
O144   O     0.94209   0.87576   0.46224   0.01267  Uiso   1.00
Zn145  Zn    0.02362   0.46133   0.96163   0.01267  Uiso   1.00
Zn146  Zn    0.46937   0.04307   0.54282   0.01267  Uiso   1.00
H147   H     0.27762   0.48212   0.62213   0.01267  Uiso   1.00
H148   H     0.41089   0.17419   0.93857   0.01267  Uiso   1.00
H149   H     0.47141   0.27091   1.00799   0.01267  Uiso   1.00
H150   H     0.21852   0.37512   0.51683   0.01267  Uiso   1.00
H151   H     0.47120   0.50122   0.77361   0.01267  Uiso   1.00
H152   H     0.41259   0.44407   0.67300   0.01267  Uiso   1.00
H153   H     0.21836   0.01719   0.87525   0.01267  Uiso   1.00
H154   H     0.27751   0.12189   0.98173   0.01267  Uiso   1.00
C155   C     0.11129   0.49978   0.61531   0.01267  Uiso   1.00
C156   C     0.18207   0.00091   0.68431   0.01267  Uiso   1.00
C157   C     0.26341   0.48802   0.67681   0.01267  Uiso   1.00
C158   C     0.16949   0.01427   0.75812   0.01267  Uiso   1.00
C159   C     0.38563   0.38404   0.50002   0.01267  Uiso   1.00
C160   C     0.31618   0.31400   0.99940   0.01267  Uiso   1.00
C161   C     0.23413   0.32096   0.51132   0.01267  Uiso   1.00
C162   C     0.32909   0.23968   0.98638   0.01267  Uiso   1.00
C163   C     0.38520   0.00089   0.88493   0.01267  Uiso   1.00
C164   C     0.31624   0.50017   0.81449   0.01267  Uiso   1.00
C165   C     0.23415   0.01200   0.82123   0.01267  Uiso   1.00
C166   C     0.32957   0.48727   0.74022   0.01267  Uiso   1.00
C167   C     0.11130   0.11466   0.99879   0.01267  Uiso   1.00
C168   C     0.18176   0.18381   0.49985   0.01267  Uiso   1.00
C169   C     0.26303   0.17635   0.98714   0.01267  Uiso   1.00
C170   C     0.16925   0.25773   0.51330   0.01267  Uiso   1.00
N171   N     0.41068   0.22777   0.97516   0.01267  Uiso   1.00
N172   N     0.41114   0.47557   0.72821   0.01267  Uiso   1.00
O173   O     0.10655   0.46097   0.54579   0.01267  Uiso   1.00
O174   O     0.44031   0.46173   0.87711   0.01267  Uiso   1.00
O175   O     0.38910   0.45340   0.53848   0.01267  Uiso   1.00
O176   O     0.05580   0.12413   0.53753   0.01267  Uiso   1.00
O177   O     0.38940   0.04063   0.95409   0.01267  Uiso   1.00
O178   O     0.05486   0.03764   0.62471   0.01267  Uiso   1.00
O179   O     0.10596   0.04503   0.95944   0.01267  Uiso   1.00
O180   O     0.44209   0.37576   0.96224   0.01267  Uiso   1.00
Zn181  Zn    0.52364   0.46132   0.96161   0.01267  Uiso   1.00
Zn182  Zn    0.96937   0.04307   0.54282   0.01267  Uiso   1.00
H183   H     0.77762   0.48212   0.62213   0.01267  Uiso   1.00
H184   H     0.91089   0.17419   0.93857   0.01267  Uiso   1.00
H185   H     0.97141   0.27091   1.00799   0.01267  Uiso   1.00
H186   H     0.71852   0.37512   0.51683   0.01267  Uiso   1.00
H187   H     0.97120   0.50122   0.77361   0.01267  Uiso   1.00
H188   H     0.91259   0.44407   0.67300   0.01267  Uiso   1.00
H189   H     0.71836   0.01719   0.87525   0.01267  Uiso   1.00
H190   H     0.77751   0.12189   0.98173   0.01267  Uiso   1.00
C191   C     0.61129   0.49978   0.61531   0.01267  Uiso   1.00
C192   C     0.68207   0.00091   0.68431   0.01267  Uiso   1.00
C193   C     0.76341   0.48802   0.67681   0.01267  Uiso   1.00
C194   C     0.66949   0.01427   0.75812   0.01267  Uiso   1.00
C195   C     0.88563   0.38404   0.50002   0.01267  Uiso   1.00
C196   C     0.81618   0.31400   0.99940   0.01267  Uiso   1.00
C197   C     0.73413   0.32096   0.51132   0.01267  Uiso   1.00
C198   C     0.82909   0.23968   0.98638   0.01267  Uiso   1.00
C199   C     0.88520   0.00089   0.88493   0.01267  Uiso   1.00
C200   C     0.81624   0.50017   0.81449   0.01267  Uiso   1.00
C201   C     0.73415   0.01200   0.82123   0.01267  Uiso   1.00
C202   C     0.82957   0.48727   0.74022   0.01267  Uiso   1.00
C203   C     0.61130   0.11466   0.99879   0.01267  Uiso   1.00
C204   C     0.68176   0.18381   0.49985   0.01267  Uiso   1.00
C205   C     0.76303   0.17635   0.98714   0.01267  Uiso   1.00
C206   C     0.66925   0.25773   0.51330   0.01267  Uiso   1.00
N207   N     0.91068   0.22777   0.97516   0.01267  Uiso   1.00
N208   N     0.91114   0.47557   0.72821   0.01267  Uiso   1.00
O209   O     0.60655   0.46097   0.54579   0.01267  Uiso   1.00
O210   O     0.94032   0.46172   0.87710   0.01267  Uiso   1.00
O211   O     0.88910   0.45340   0.53848   0.01267  Uiso   1.00
O212   O     0.55580   0.12413   0.53753   0.01267  Uiso   1.00
O213   O     0.88940   0.04063   0.95409   0.01267  Uiso   1.00
O214   O     0.55486   0.03764   0.62471   0.01267  Uiso   1.00
O215   O     0.60596   0.04503   0.95943   0.01267  Uiso   1.00
O216   O     0.94209   0.37576   0.96224   0.01267  Uiso   1.00
Zn217  Zn    0.02361   0.96133   0.96163   0.01267  Uiso   1.00
Zn218  Zn    0.46937   0.54307   0.54282   0.01267  Uiso   1.00
H219   H     0.27762   0.98212   0.62213   0.01267  Uiso   1.00
H220   H     0.41089   0.67419   0.93857   0.01267  Uiso   1.00
H221   H     0.47141   0.77091   1.00799   0.01267  Uiso   1.00
H222   H     0.21852   0.87512   0.51683   0.01267  Uiso   1.00
H223   H     0.47120   1.00122   0.77361   0.01267  Uiso   1.00
H224   H     0.41259   0.94407   0.67300   0.01267  Uiso   1.00
H225   H     0.21836   0.51719   0.87525   0.01267  Uiso   1.00
H226   H     0.27751   0.62189   0.98173   0.01267  Uiso   1.00
C227   C     0.11129   0.99978   0.61531   0.01267  Uiso   1.00
C228   C     0.18207   0.50091   0.68431   0.01267  Uiso   1.00
C229   C     0.26341   0.98802   0.67681   0.01267  Uiso   1.00
C230   C     0.16949   0.51427   0.75812   0.01267  Uiso   1.00
C231   C     0.38563   0.88404   0.50002   0.01267  Uiso   1.00
C232   C     0.31618   0.81400   0.99940   0.01267  Uiso   1.00
C233   C     0.23413   0.82096   0.51132   0.01267  Uiso   1.00
C234   C     0.32909   0.73968   0.98638   0.01267  Uiso   1.00
C235   C     0.38520   0.50089   0.88493   0.01267  Uiso   1.00
C236   C     0.31624   1.00017   0.81449   0.01267  Uiso   1.00
C237   C     0.23415   0.51200   0.82123   0.01267  Uiso   1.00
C238   C     0.32957   0.98727   0.74022   0.01267  Uiso   1.00
C239   C     0.11130   0.61466   0.99880   0.01267  Uiso   1.00
C240   C     0.18176   0.68381   0.49985   0.01267  Uiso   1.00
C241   C     0.26303   0.67635   0.98714   0.01267  Uiso   1.00
C242   C     0.16925   0.75773   0.51330   0.01267  Uiso   1.00
N243   N     0.41068   0.72777   0.97516   0.01267  Uiso   1.00
N244   N     0.41114   0.97557   0.72821   0.01267  Uiso   1.00
O245   O     0.10655   0.96098   0.54579   0.01267  Uiso   1.00
O246   O     0.44033   0.96172   0.87709   0.01267  Uiso   1.00
O247   O     0.38910   0.95340   0.53848   0.01267  Uiso   1.00
O248   O     0.05580   0.62413   0.53753   0.01267  Uiso   1.00
O249   O     0.38940   0.54063   0.95409   0.01267  Uiso   1.00
O250   O     0.05486   0.53764   0.62471   0.01267  Uiso   1.00
O251   O     0.10596   0.54503   0.95944   0.01267  Uiso   1.00
O252   O     0.44209   0.87576   0.96224   0.01267  Uiso   1.00
Zn253  Zn    0.52361   0.96134   0.96164   0.01267  Uiso   1.00
Zn254  Zn    0.96937   0.54307   0.54282   0.01267  Uiso   1.00
H255   H     0.77762   0.98212   0.62213   0.01267  Uiso   1.00
H256   H     0.91089   0.67419   0.93857   0.01267  Uiso   1.00
H257   H     0.97141   0.77091   1.00799   0.01267  Uiso   1.00
H258   H     0.71852   0.87512   0.51683   0.01267  Uiso   1.00
H259   H     0.97120   1.00122   0.77361   0.01267  Uiso   1.00
H260   H     0.91259   0.94407   0.67300   0.01267  Uiso   1.00
H261   H     0.71836   0.51719   0.87525   0.01267  Uiso   1.00
H262   H     0.77751   0.62189   0.98173   0.01267  Uiso   1.00
C263   C     0.61129   0.99978   0.61531   0.01267  Uiso   1.00
C264   C     0.68207   0.50091   0.68431   0.01267  Uiso   1.00
C265   C     0.76341   0.98802   0.67681   0.01267  Uiso   1.00
C266   C     0.66949   0.51427   0.75812   0.01267  Uiso   1.00
C267   C     0.88563   0.88404   0.50002   0.01267  Uiso   1.00
C268   C     0.81618   0.81400   0.99940   0.01267  Uiso   1.00
C269   C     0.73413   0.82096   0.51132   0.01267  Uiso   1.00
C270   C     0.82909   0.73968   0.98638   0.01267  Uiso   1.00
C271   C     0.88520   0.50089   0.88493   0.01267  Uiso   1.00
C272   C     0.81624   1.00017   0.81449   0.01267  Uiso   1.00
C273   C     0.73415   0.51200   0.82123   0.01267  Uiso   1.00
C274   C     0.82957   0.98727   0.74022   0.01267  Uiso   1.00
C275   C     0.61130   0.61466   0.99880   0.01267  Uiso   1.00
C276   C     0.68176   0.68381   0.49985   0.01267  Uiso   1.00
C277   C     0.76303   0.67635   0.98714   0.01267  Uiso   1.00
C278   C     0.66925   0.75773   0.51330   0.01267  Uiso   1.00
N279   N     0.91068   0.72777   0.97516   0.01267  Uiso   1.00
N280   N     0.91114   0.97557   0.72821   0.01267  Uiso   1.00
O281   O     0.60655   0.96098   0.54579   0.01267  Uiso   1.00
O282   O     0.94032   0.96172   0.87710   0.01267  Uiso   1.00
O283   O     0.88910   0.95340   0.53848   0.01267  Uiso   1.00
O284   O     0.55580   0.62413   0.53753   0.01267  Uiso   1.00
O285   O     0.88940   0.54063   0.95409   0.01267  Uiso   1.00
O286   O     0.55486   0.53764   0.62471   0.01267  Uiso   1.00
O287   O     0.60596   0.54503   0.95944   0.01267  Uiso   1.00
O288   O     0.94209   0.87576   0.96224   0.01267  Uiso   1.00
H289   H     0.10898   0.02555   0.26699   0.00000  Uiso   1.00
H290   H     0.10877   0.26665   0.02443   0.00000  Uiso   1.00
H291   H     0.60898   0.02555   0.26699   0.00000  Uiso   1.00
H292   H     0.60877   0.26665   0.02443   0.00000  Uiso   1.00
H293   H     0.10898   0.52555   0.26699   0.00000  Uiso   1.00
H294   H     0.10877   0.76665   0.02443   0.00000  Uiso   1.00
H295   H     0.60898   0.52555   0.26699   0.00000  Uiso   1.00
H296   H     0.60877   0.76665   0.02443   0.00000  Uiso   1.00
H297   H     0.10898   0.02555   0.76699   0.00000  Uiso   1.00
H298   H     0.10877   0.26665   0.52443   0.00000  Uiso   1.00
H299   H     0.60898   0.02555   0.76699   0.00000  Uiso   1.00
H300   H     0.60877   0.26665   0.52443   0.00000  Uiso   1.00
H301   H     0.10898   0.52555   0.76699   0.00000  Uiso   1.00
H302   H     0.10877   0.76665   0.52443   0.00000  Uiso   1.00
H303   H     0.60898   0.52555   0.76699   0.00000  Uiso   1.00
H304   H     0.60877   0.76665   0.52443   0.00000  Uiso   1.00
loop_
_geom_bond_atom_site_label_1
_geom_bond_atom_site_label_2
_geom_bond_distance
_geom_bond_site_symmetry_2
_ccdc_geom_bond_type
Zn1    O173    1.830   .     S
Zn1    O107    1.833   .     S
Zn1    O66     1.838   1_455 S
Zn1    O72     1.839   1_455 S
Zn2    O68     1.861   .     S
Zn2    O70     1.864   .     S
Zn2    O103    1.848   1_545 S
Zn2    O177    1.846   1_554 S
H3     C13     1.080   .     S
H4     N27     1.043   .     S
H5     N27     1.042   .     S
H6     C17     1.082   .     S
H7     N28     1.041   .     S
H8     N28     1.043   .     S
H9     C21     1.081   .     S
H10    C25     1.079   .     S
C11    C84     1.514   .     S
C11    O29     1.275   .     A
C11    O106    1.280   .     A
C12    C14     1.403   .     A
C12    C83     1.514   1_545 S
C12    C85     1.409   1_545 S
C13    C84     1.409   .     A
C13    C22     1.415   .     A
C14    C21     1.410   .     A
C14    H289    1.076   .     S
C15    O31     1.276   .     A
C15    C160    1.520   1_554 S
C15    O180    1.277   1_554 S
C16    C159    1.520   .     S
C16    C161    1.411   .     A
C16    C18     1.415   .     A
C17    C26     1.411   .     A
C17    C160    1.411   1_554 S
C18    C25     1.413   .     A
C18    N27     1.426   .     S
C19    O33     1.276   .     A
C19    C92     1.520   1_545 S
C19    O102    1.276   1_545 S
C20    C91     1.520   .     S
C20    C93     1.410   .     A
C20    C22     1.417   .     A
C21    C92     1.410   1_545 S
C22    N28     1.429   .     S
C23    C168    1.513   .     S
C23    O176    1.279   .     A
C23    O35     1.276   .     A
C24    C26     1.404   .     A
C24    C167    1.513   1_554 S
C24    C169    1.406   1_554 A
C25    C168    1.406   .     A
C26    H290    1.075   .     S
O29    Zn145   1.830   1_554 A
O30    C91     1.276   .     A
O30    Zn37    1.838   .     S
O31    Zn74    1.848   .     S
O32    C167    1.279   1_554 A
O32    Zn38    1.861   1_455 A
O33    Zn146   1.846   .     S
O34    Zn38    1.864   1_455 A
O34    C83     1.280   1_545 A
O35    Zn73    1.833   1_545 S
O36    Zn37    1.839   .     S
O36    C159    1.277   .     A
Zn37   O209    1.830   .     S
Zn37   O143    1.833   .     S
Zn38   O32     1.861   1_655 A
Zn38   O34     1.864   1_655 A
Zn38   O139    1.848   1_545 A
Zn38   O213    1.846   1_554 A
H39    C49     1.080   .     S
H40    N63     1.043   .     S
H41    N63     1.042   .     S
H42    C53     1.082   .     S
H43    N64     1.041   .     S
H44    N64     1.043   .     S
H45    C57     1.081   .     S
H46    C61     1.079   .     S
C47    C120    1.514   .     S
C47    O65     1.274   .     A
C47    O142    1.280   .     A
C48    C50     1.403   .     A
C48    C119    1.514   1_545 A
C48    C121    1.409   1_545 A
C49    C120    1.409   .     A
C49    C58     1.415   .     A
C50    C57     1.410   .     A
C50    H291    1.076   .     S
C51    O67     1.276   .     A
C51    C196    1.520   1_554 S
C51    O216    1.277   1_554 A
C52    C195    1.520   .     S
C52    C197    1.411   .     A
C52    C54     1.415   .     A
C53    C62     1.411   .     A
C53    C196    1.411   1_554 S
C54    C61     1.413   .     A
C54    N63     1.426   .     S
C55    O69     1.276   .     A
C55    C128    1.520   1_545 A
C55    O138    1.276   1_545 A
C56    C127    1.520   .     S
C56    C129    1.410   .     A
C56    C58     1.417   .     A
C57    C128    1.410   1_545 S
C58    N64     1.429   .     S
C59    C204    1.513   .     S
C59    O212    1.279   .     A
C59    O71     1.276   .     A
C60    C62     1.404   .     A
C60    C203    1.513   1_554 S
C60    C205    1.406   1_554 A
C61    C204    1.406   .     A
C62    H292    1.075   .     S
O65    Zn181   1.830   1_554 A
O66    C127    1.276   .     A
O66    Zn1     1.838   1_655 S
O67    Zn110   1.848   .     S
O68    C203    1.279   1_554 A
O69    Zn182   1.846   .     S
O70    C119    1.280   1_545 S
O71    Zn109   1.833   1_545 A
O72    C195    1.277   .     A
O72    Zn1     1.839   1_655 S
Zn73   O245    1.830   .     S
Zn73   O35     1.833   1_565 S
Zn73   O138    1.838   1_455 S
Zn73   O144    1.839   1_455 S
Zn74   O140    1.861   .     S
Zn74   O142    1.864   .     S
Zn74   O249    1.846   1_554 A
H75    C85     1.080   .     S
H76    N99     1.043   .     S
H77    N99     1.042   .     S
H78    C89     1.082   .     S
H79    N100    1.041   .     S
H80    N100    1.043   .     S
H81    C93     1.081   .     S
H82    C97     1.079   .     S
C83    O101    1.274   .     A
C83    C12     1.514   1_565 S
C83    O34     1.280   1_565 A
C84    C86     1.403   .     A
C85    C94     1.415   .     A
C85    C12     1.409   1_565 S
C86    C93     1.410   .     A
C86    H293    1.076   .     S
C87    O103    1.276   .     A
C87    C232    1.520   1_554 S
C87    O252    1.277   1_554 S
C88    C231    1.520   .     S
C88    C233    1.411   .     A
C88    C90     1.415   .     A
C89    C98     1.411   .     A
C89    C232    1.411   1_554 S
C90    C97     1.413   .     A
C90    N99     1.426   .     S
C91    O105    1.276   .     A
C92    C94     1.417   .     A
C92    C19     1.520   1_565 S
C92    C21     1.410   1_565 S
C94    N100    1.429   .     S
C95    C240    1.513   .     S
C95    O248    1.279   .     A
C95    O107    1.276   .     A
C96    C98     1.404   .     A
C96    C239    1.514   1_554 S
C96    C241    1.406   1_554 S
C97    C240    1.406   .     A
C98    H294    1.075   .     S
O101   Zn217   1.830   1_554 S
O102   Zn109   1.838   .     S
O102   C19     1.276   1_565 S
O103   Zn2     1.848   1_565 S
O104   C239    1.279   1_554 A
O104   Zn110   1.861   1_455 A
O105   Zn218   1.846   .     S
O106   Zn110   1.864   1_455 A
O108   Zn109   1.839   .     S
O108   C231    1.277   .     A
Zn109  O281    1.830   .     S
Zn109  O71     1.833   1_565 A
Zn110  O104    1.861   1_655 A
Zn110  O106    1.864   1_655 A
Zn110  O285    1.846   1_554 A
H111   C121    1.080   .     S
H112   N135    1.043   .     S
H113   N135    1.042   .     S
H114   C125    1.082   .     S
H115   N136    1.041   .     S
H116   N136    1.043   .     S
H117   C129    1.081   .     S
H118   C133    1.079   .     S
C119   O137    1.275   .     A
C119   C48     1.514   1_565 A
C119   O70     1.280   1_565 S
C120   C122    1.403   .     A
C121   C130    1.415   .     A
C121   C48     1.409   1_565 A
C122   C129    1.410   .     A
C122   H295    1.076   .     S
C123   O139    1.276   .     A
C123   C268    1.520   1_554 A
C123   O288    1.277   1_554 S
C124   C267    1.520   .     S
C124   C269    1.411   .     A
C124   C126    1.415   .     A
C125   C134    1.411   .     A
C125   C268    1.411   1_554 A
C126   C133    1.413   .     A
C126   N135    1.426   .     S
C127   O141    1.276   .     A
C128   C130    1.417   .     A
C128   C55     1.520   1_565 A
C128   C57     1.410   1_565 S
C130   N136    1.429   .     S
C131   C276    1.514   .     S
C131   O284    1.279   .     A
C131   O143    1.276   .     A
C132   C134    1.404   .     A
C132   C275    1.514   1_554 A
C132   C277    1.406   1_554 S
C133   C276    1.406   .     A
C134   H296    1.075   .     S
O137   Zn253   1.830   1_554 S
O138   C55     1.276   1_565 A
O138   Zn73    1.838   1_655 S
O139   Zn38    1.848   1_565 A
O140   C275    1.279   1_554 A
O141   Zn254   1.846   .     S
O144   C267    1.277   .     A
O144   Zn73    1.839   1_655 S
Zn145  O251    1.833   .     S
Zn145  O29     1.830   1_556 A
Zn145  O210    1.838   1_455 S
Zn145  O216    1.839   1_455 S
Zn146  O212    1.861   .     S
Zn146  O214    1.864   .     S
Zn146  O247    1.848   1_545 A
H147   C157    1.080   .     S
H148   N171    1.043   .     S
H149   N171    1.042   .     S
H150   C161    1.082   .     S
H151   N172    1.041   .     S
H152   N172    1.043   .     S
H153   C165    1.081   .     S
H154   C169    1.079   .     S
C155   C228    1.514   .     S
C155   O173    1.275   .     A
C155   O250    1.280   .     A
C156   C158    1.403   .     A
C156   C227    1.514   1_545 S
C156   C229    1.409   1_545 S
C157   C228    1.409   .     A
C157   C166    1.415   .     A
C158   C165    1.410   .     A
C158   H297    1.076   .     S
C159   O175    1.276   .     A
C160   C162    1.415   .     A
C160   C15     1.520   1_556 S
C160   C17     1.411   1_556 S
C161   C170    1.411   .     A
C162   C169    1.413   .     A
C162   N171    1.426   .     S
C163   O177    1.276   .     A
C163   C236    1.520   1_545 S
C163   O246    1.276   1_545 S
C164   C235    1.520   .     S
C164   C237    1.410   .     A
C164   C166    1.417   .     A
C165   C236    1.410   1_545 S
C166   N172    1.429   .     S
C167   O179    1.276   .     A
C167   C24     1.513   1_556 S
C167   O32     1.279   1_556 A
C168   C170    1.404   .     A
C169   C24     1.406   1_556 A
C170   H298    1.075   .     S
O174   C235    1.276   .     A
O174   Zn181   1.838   .     S
O175   Zn218   1.848   .     S
O176   Zn182   1.861   1_455 S
O177   Zn2     1.846   1_556 S
O178   Zn182   1.864   1_455 A
O178   C227    1.280   1_545 A
O179   Zn217   1.833   1_545 A
O180   Zn181   1.839   .     S
O180   C15     1.277   1_556 S
Zn181  O287    1.833   .     S
Zn181  O65     1.830   1_556 A
Zn182  O176    1.861   1_655 S
Zn182  O178    1.864   1_655 A
Zn182  O283    1.848   1_545 S
H183   C193    1.080   .     S
H184   N207    1.043   .     S
H185   N207    1.042   .     S
H186   C197    1.082   .     S
H187   N208    1.041   .     S
H188   N208    1.043   .     S
H189   C201    1.081   .     S
H190   C205    1.079   .     S
C191   C264    1.514   .     S
C191   O209    1.275   .     A
C191   O286    1.280   .     A
C192   C194    1.403   .     A
C192   C263    1.514   1_545 A
C192   C265    1.409   1_545 A
C193   C264    1.409   .     A
C193   C202    1.415   .     A
C194   C201    1.410   .     A
C194   H299    1.076   .     S
C195   O211    1.276   .     A
C196   C198    1.415   .     A
C196   C51     1.520   1_556 S
C196   C53     1.411   1_556 S
C197   C206    1.411   .     A
C198   C205    1.413   .     A
C198   N207    1.426   .     S
C199   O213    1.276   .     A
C199   C272    1.520   1_545 A
C199   O282    1.276   1_545 S
C200   C271    1.520   .     S
C200   C273    1.410   .     A
C200   C202    1.417   .     A
C201   C272    1.410   1_545 S
C202   N208    1.429   .     S
C203   O215    1.276   .     A
C203   C60     1.513   1_556 S
C203   O68     1.279   1_556 A
C204   C206    1.404   .     A
C205   C60     1.406   1_556 A
C206   H300    1.075   .     S
O210   C271    1.276   .     A
O210   Zn145   1.838   1_655 S
O211   Zn254   1.848   .     S
O213   Zn38    1.846   1_556 A
O214   C263    1.280   1_545 S
O215   Zn253   1.833   1_545 S
O216   C51     1.277   1_556 A
O216   Zn145   1.839   1_655 S
Zn217  O101    1.830   1_556 S
Zn217  O179    1.833   1_565 A
Zn217  O282    1.838   1_455 S
Zn217  O288    1.839   1_455 S
Zn218  O284    1.861   .     S
Zn218  O286    1.864   .     S
H219   C229    1.080   .     S
H220   N243    1.043   .     S
H221   N243    1.042   .     S
H222   C233    1.082   .     S
H223   N244    1.041   .     S
H224   N244    1.043   .     S
H225   C237    1.081   .     S
H226   C241    1.079   .     S
C227   O245    1.274   .     A
C227   C156    1.514   1_565 S
C227   O178    1.280   1_565 A
C228   C230    1.403   .     A
C229   C238    1.415   .     A
C229   C156    1.409   1_565 S
C230   C237    1.410   .     A
C230   H301    1.076   .     S
C231   O247    1.276   .     A
C232   C234    1.415   .     A
C232   C87     1.520   1_556 S
C232   C89     1.411   1_556 S
C233   C242    1.411   .     A
C234   C241    1.413   .     A
C234   N243    1.426   .     S
C235   O249    1.276   .     A
C236   C238    1.417   .     A
C236   C163    1.520   1_565 S
C236   C165    1.410   1_565 S
C238   N244    1.429   .     S
C239   O251    1.276   .     A
C239   C96     1.514   1_556 S
C239   O104    1.279   1_556 A
C240   C242    1.404   .     A
C241   C96     1.406   1_556 S
C242   H302    1.075   .     S
O246   Zn253   1.838   .     S
O246   C163    1.276   1_565 S
O247   Zn146   1.848   1_565 A
O248   Zn254   1.861   1_455 A
O249   Zn74    1.846   1_556 A
O250   Zn254   1.864   1_455 A
O252   Zn253   1.839   .     S
O252   C87     1.277   1_556 S
Zn253  O137    1.830   1_556 S
Zn253  O215    1.833   1_565 S
Zn254  O248    1.861   1_655 A
Zn254  O250    1.864   1_655 A
H255   C265    1.080   .     S
H256   N279    1.043   .     S
H257   N279    1.042   .     S
H258   C269    1.082   .     S
H259   N280    1.041   .     S
H260   N280    1.043   .     S
H261   C273    1.081   .     S
H262   C277    1.079   .     S
C263   O281    1.274   .     A
C263   C192    1.514   1_565 A
C263   O214    1.280   1_565 S
C264   C266    1.403   .     A
C265   C274    1.415   .     A
C265   C192    1.409   1_565 A
C266   C273    1.410   .     A
C266   H303    1.076   .     S
C267   O283    1.276   .     A
C268   C270    1.415   .     A
C268   C123    1.520   1_556 A
C268   C125    1.411   1_556 A
C269   C278    1.411   .     A
C270   C277    1.413   .     A
C270   N279    1.426   .     S
C271   O285    1.276   .     A
C272   C274    1.417   .     A
C272   C199    1.520   1_565 A
C272   C201    1.410   1_565 S
C274   N280    1.429   .     S
C275   O287    1.276   .     A
C275   C132    1.514   1_556 A
C275   O140    1.279   1_556 A
C276   C278    1.404   .     A
C277   C132    1.406   1_556 S
C278   H304    1.075   .     S
O282   C199    1.276   1_565 S
O282   Zn217   1.838   1_655 S
O283   Zn182   1.848   1_565 S
O285   Zn110   1.846   1_556 A
O288   C123    1.277   1_556 S
O288   Zn217   1.839   1_655 S
