data_LURGEL_clean
_audit_creation_date              2014-07-02
_audit_creation_method            'Materials Studio'
_symmetry_space_group_name_H-M    'P1'
_symmetry_Int_Tables_number       1
_symmetry_cell_setting            triclinic
loop_
_symmetry_equiv_pos_as_xyz
  x,y,z
_cell_length_a                    11.8137
_cell_length_b                    15.5303
_cell_length_c                    16.3912
_cell_angle_alpha                 90.0000
_cell_angle_beta                  90.0000
_cell_angle_gamma                 90.0000
loop_
_atom_site_label
_atom_site_type_symbol
_atom_site_fract_x
_atom_site_fract_y
_atom_site_fract_z
_atom_site_U_iso_or_equiv
_atom_site_adp_type
_atom_site_occupancy
Zn1    Zn    0.69380   0.67800   0.82370   0.01267  Uiso   1.00
Zn2    Zn    0.69210   0.67760   0.00180   0.01267  Uiso   1.00
Si1    Si    0.93470   0.42790   0.43720   0.01267  Uiso   1.00
H1     H     0.01620   0.02370   0.03090   0.01267  Uiso   1.00
H2     H     0.02060   0.34000   0.79290   0.01267  Uiso   1.00
H3     H     0.96700   0.86940   0.79240   0.01267  Uiso   1.00
H4     H     0.90140   0.45560   0.79030   0.01267  Uiso   1.00
H5     H     0.95710   0.48040   0.03030   0.01267  Uiso   1.00
H6     H     0.90180   0.90530   0.02880   0.01267  Uiso   1.00
H7     H     0.52200   0.92220   0.02280   0.01267  Uiso   1.00
H8     H     0.52380   0.43620   0.80370   0.01267  Uiso   1.00
H9     H     0.40540   0.04370   0.02620   0.01267  Uiso   1.00
H10    H     0.40720   0.31470   0.79770   0.01267  Uiso   1.00
H11    H     0.37920   0.84610   0.81150   0.01267  Uiso   1.00
H12    H     0.37630   0.50740   0.01450   0.01267  Uiso   1.00
H13    H     0.38570   0.17840   0.91330   0.01267  Uiso   1.00
H14    H     0.26040   0.38670   0.01060   0.01267  Uiso   1.00
H15    H     0.26350   0.96810   0.81590   0.01267  Uiso   1.00
H16    H     0.00150   0.17740   0.89770   0.01267  Uiso   1.00
H17    H     0.07890   0.98860   0.79850   0.01267  Uiso   1.00
H18    H     0.07500   0.36320   0.02830   0.01267  Uiso   1.00
H19    H     0.78520   0.58270   0.68650   0.01267  Uiso   1.00
H20    H     0.80610   0.79120   0.27080   0.01267  Uiso   1.00
H21    H     0.79700   0.77400   0.13240   0.01267  Uiso   1.00
H22    H     0.59680   0.62600   0.43110   0.01267  Uiso   1.00
H23    H     0.74020   0.75760   0.40680   0.01267  Uiso   1.00
H24    H     0.57250   0.59370   0.15600   0.01267  Uiso   1.00
H25    H     0.58540   0.78560   0.54870   0.01267  Uiso   1.00
H26    H     0.57810   0.60810   0.29490   0.01267  Uiso   1.00
H27    H     0.58860   0.78400   0.68620   0.01267  Uiso   1.00
H28    H     0.96200   0.39460   0.29890   0.01267  Uiso   1.00
H29    H     0.84010   0.43220   0.31140   0.01267  Uiso   1.00
H30    H     0.94480   0.49410   0.30870   0.01267  Uiso   1.00
H31    H     0.92340   0.27540   0.44090   0.01267  Uiso   1.00
H32    H     0.89490   0.31250   0.52750   0.01267  Uiso   1.00
H33    H     0.80340   0.31450   0.45830   0.01267  Uiso   1.00
H34    H     0.13030   0.39550   0.43540   0.01267  Uiso   1.00
H35    H     0.11380   0.49420   0.45120   0.01267  Uiso   1.00
H36    H     0.09610   0.42820   0.52250   0.01267  Uiso   1.00
C1     C     0.00760   0.99380   0.98210   0.01267  Uiso   1.00
C2     C     0.00810   0.36820   0.84210   0.01267  Uiso   1.00
C3     C     0.97560   0.89940   0.84110   0.01267  Uiso   1.00
C4     C     0.93560   0.43830   0.83860   0.01267  Uiso   1.00
C5     C     0.96960   0.45190   0.98130   0.01267  Uiso   1.00
C6     C     0.92170   0.87370   0.91170   0.01267  Uiso   1.00
C7     C     0.91720   0.48090   0.91180   0.01267  Uiso   1.00
C8     C     0.93830   0.92170   0.98100   0.01267  Uiso   1.00
C9     C     0.84150   0.55790   0.91320   0.01267  Uiso   1.00
C10    C     0.84220   0.79850   0.91260   0.01267  Uiso   1.00
C11    C     0.53880   0.79690   0.91360   0.01267  Uiso   1.00
C12    C     0.54080   0.55990   0.91900   0.01267  Uiso   1.00
C13    C     0.46950   0.93150   0.98150   0.01267  Uiso   1.00
C14    C     0.47110   0.42630   0.84470   0.01267  Uiso   1.00
C15    C     0.46200   0.48490   0.91010   0.01267  Uiso   1.00
C16    C     0.45990   0.87250   0.91700   0.01267  Uiso   1.00
C17    C     0.39990   0.00460   0.98340   0.01267  Uiso   1.00
C18    C     0.40150   0.35320   0.84090   0.01267  Uiso   1.00
C19    C     0.38460   0.88500   0.85440   0.01267  Uiso   1.00
C20    C     0.38270   0.46890   0.97130   0.01267  Uiso   1.00
C21    C     0.32260   0.33930   0.90440   0.01267  Uiso   1.00
C22    C     0.32230   0.01820   0.92060   0.01267  Uiso   1.00
C23    C     0.30710   0.17830   0.91010   0.01267  Uiso   1.00
C24    C     0.31280   0.39650   0.96930   0.01267  Uiso   1.00
C25    C     0.31550   0.95880   0.85750   0.01267  Uiso   1.00
C26    C     0.25620   0.25770   0.91270   0.01267  Uiso   1.00
C27    C     0.25770   0.09940   0.90350   0.01267  Uiso   1.00
C28    C     0.13970   0.10030   0.89870   0.01267  Uiso   1.00
C29    C     0.13860   0.25500   0.90780   0.01267  Uiso   1.00
C30    C     0.08010   0.17760   0.90090   0.01267  Uiso   1.00
C31    C     0.06470   0.02350   0.91330   0.01267  Uiso   1.00
C32    C     0.06470   0.33430   0.90920   0.01267  Uiso   1.00
C33    C     0.04320   0.97220   0.84660   0.01267  Uiso   1.00
C34    C     0.04130   0.38060   0.97980   0.01267  Uiso   1.00
C35    C     0.74260   0.62394   0.57499   0.01267  Uiso   1.00
C36    C     0.74380   0.62470   0.65920   0.01267  Uiso   1.00
C37    C     0.75750   0.75020   0.24870   0.01267  Uiso   1.00
C38    C     0.75140   0.73930   0.16490   0.01267  Uiso   1.00
C39    C     0.68290   0.68310   0.53090   0.01267  Uiso   1.00
C40    C     0.69310   0.70130   0.29820   0.01267  Uiso   1.00
C41    C     0.65050   0.66760   0.44410   0.01267  Uiso   1.00
C42    C     0.69700   0.71160   0.38850   0.01267  Uiso   1.00
C43    C     0.62090   0.63450   0.17840   0.01267  Uiso   1.00
C44    C     0.62660   0.74300   0.57550   0.01267  Uiso   1.00
C45    C     0.62400   0.64290   0.26260   0.01267  Uiso   1.00
C46    C     0.62910   0.74210   0.65810   0.01267  Uiso   1.00
C47    C     0.85510   0.50870   0.49398   0.01267  Uiso   1.00
C48    C     0.80410   0.56095   0.53071   0.01267  Uiso   1.00
C49    C     0.91850   0.43850   0.32570   0.01267  Uiso   1.00
C50    C     0.88280   0.31930   0.47000   0.01267  Uiso   1.00
C51    C     0.08720   0.43760   0.46490   0.01267  Uiso   1.00
N1     N     0.68390   0.68210   0.12750   0.01267  Uiso   1.00
N2     N     0.68850   0.68230   0.70190   0.01267  Uiso   1.00
O1     O     0.80380   0.58060   0.98090   0.01267  Uiso   1.00
O2     O     0.79880   0.77630   0.97990   0.01267  Uiso   1.00
O3     O     0.79980   0.78110   0.84360   0.01267  Uiso   1.00
O4     O     0.79400   0.57670   0.84560   0.01267  Uiso   1.00
O5     O     0.56740   0.76440   0.84640   0.01267  Uiso   1.00
O6     O     0.56150   0.59660   0.85120   0.01267  Uiso   1.00
O7     O     0.55810   0.59970   0.98480   0.01267  Uiso   1.00
O8     O     0.55680   0.75630   0.97870   0.01267  Uiso   1.00
