data_LUSJAL_clean
_audit_creation_date              2014-07-02
_audit_creation_method            'Materials Studio'
_symmetry_space_group_name_H-M    'P1'
_symmetry_Int_Tables_number       1
_symmetry_cell_setting            triclinic
loop_
_symmetry_equiv_pos_as_xyz
  x,y,z
_cell_length_a                    11.1930
_cell_length_b                    12.5469
_cell_length_c                    12.5469
_cell_angle_alpha                 98.5616
_cell_angle_beta                  108.7630
_cell_angle_gamma                 108.7630
loop_
_atom_site_label
_atom_site_type_symbol
_atom_site_fract_x
_atom_site_fract_y
_atom_site_fract_z
_atom_site_U_iso_or_equiv
_atom_site_adp_type
_atom_site_occupancy
Mn1    Mn    0.75000   0.69953   0.30047   0.01267  Uiso   1.00
Mn2    Mn    0.25000   0.30047   0.69953   0.01267  Uiso   1.00
Mn3    Mn    0.00000   0.00000   0.50000   0.01267  Uiso   1.00
Mn4    Mn    0.50000   0.50000  -0.00000   0.01267  Uiso   1.00
H1     H     0.97590   0.44260   0.67020   0.01267  Uiso   1.00
H2     H     0.88960   0.54900   0.55500   0.01267  Uiso   1.00
H3     H     0.24900   0.82560   0.71880   0.01267  Uiso   1.00
H4     H     0.32870   0.72050   0.83910   0.01267  Uiso   1.00
H5     H     0.99410   0.79170   0.19670   0.01267  Uiso   1.00
H6     H     0.04910   0.85060   0.04820   0.01267  Uiso   1.00
H7     H     0.90300   0.09810   0.08470   0.01267  Uiso   1.00
H8     H     0.85430   0.03830   0.23630   0.01267  Uiso   1.00
H9     H     0.52410   0.32980   0.55740   0.01267  Uiso   1.00
H10    H     0.61040   0.44500   0.45100   0.01267  Uiso   1.00
H11    H     0.25100   0.28120   0.17440   0.01267  Uiso   1.00
H12    H     0.17130   0.16090   0.27950   0.01267  Uiso   1.00
H13    H     0.50590   0.80330   0.20830   0.01267  Uiso   1.00
H14    H     0.45090   0.95180   0.14940   0.01267  Uiso   1.00
H15    H     0.59700   0.91530   0.90190   0.01267  Uiso   1.00
H16    H     0.64570   0.76370   0.96170   0.01267  Uiso   1.00
H17    H     0.02410   0.55740   0.32980   0.01267  Uiso   1.00
H18    H     0.11040   0.45100   0.44500   0.01267  Uiso   1.00
H19    H     0.75100   0.17440   0.28120   0.01267  Uiso   1.00
H20    H     0.67130   0.27950   0.16090   0.01267  Uiso   1.00
H21    H     0.00590   0.20830   0.80330   0.01267  Uiso   1.00
H22    H     0.95090   0.14940   0.95180   0.01267  Uiso   1.00
H23    H     0.09700   0.90190   0.91530   0.01267  Uiso   1.00
H24    H     0.14570   0.96170   0.76370   0.01267  Uiso   1.00
H25    H     0.47590   0.67020   0.44260   0.01267  Uiso   1.00
H26    H     0.38960   0.55500   0.54900   0.01267  Uiso   1.00
H27    H     0.74900   0.71880   0.82560   0.01267  Uiso   1.00
H28    H     0.82870   0.83910   0.72050   0.01267  Uiso   1.00
H29    H     0.49410   0.19670   0.79170   0.01267  Uiso   1.00
H30    H     0.54910   0.04820   0.85060   0.01267  Uiso   1.00
H31    H     0.40300   0.08470   0.09810   0.01267  Uiso   1.00
H32    H     0.35430   0.23630   0.03830   0.01267  Uiso   1.00
C1     C     0.22420   0.49937   0.83523   0.01267  Uiso   1.00
C2     C     0.16280   0.57041   0.76599   0.01267  Uiso   1.00
C3     C     0.03080   0.52008   0.68092   0.01267  Uiso   1.00
C4     C     0.97920   0.58389   0.61111   0.01267  Uiso   1.00
C5     C     0.05920   0.69897   0.62403   0.01267  Uiso   1.00
C6     C     0.19240   0.74899   0.70941   0.01267  Uiso   1.00
C7     C     0.24080   0.68484   0.78016   0.01267  Uiso   1.00
C8     C     0.00380   0.76473   0.54327   0.01267  Uiso   1.00
C9     C     0.97720   0.85470   0.17450   0.01267  Uiso   1.00
C10    C     0.00880   0.88960   0.08500   0.01267  Uiso   1.00
C11    C     0.98240   0.98075   0.04845   0.01267  Uiso   1.00
C12    C     0.92310   0.03625   0.10675   0.01267  Uiso   1.00
C13    C     0.89380   0.00049   0.19731   0.01267  Uiso   1.00
C14    C     0.27580   0.16477   0.50063   0.01267  Uiso   1.00
C15    C     0.33720   0.23401   0.42959   0.01267  Uiso   1.00
C16    C     0.46920   0.31908   0.47992   0.01267  Uiso   1.00
C17    C     0.52080   0.38889   0.41611   0.01267  Uiso   1.00
C18    C     0.44080   0.37597   0.30103   0.01267  Uiso   1.00
C19    C     0.30760   0.29059   0.25101   0.01267  Uiso   1.00
C20    C     0.25920   0.21984   0.31516   0.01267  Uiso   1.00
C21    C     0.49620   0.45673   0.23527   0.01267  Uiso   1.00
C22    C     0.52280   0.82550   0.14530   0.01267  Uiso   1.00
C23    C     0.49120   0.91500   0.11040   0.01267  Uiso   1.00
C24    C     0.51760   0.95155   0.01925   0.01267  Uiso   1.00
C25    C     0.57690   0.89325   0.96375   0.01267  Uiso   1.00
C26    C     0.60620   0.80269   0.99951   0.01267  Uiso   1.00
C27    C     0.77580   0.50063   0.16477   0.01267  Uiso   1.00
C28    C     0.83720   0.42959   0.23401   0.01267  Uiso   1.00
C29    C     0.96920   0.47992   0.31908   0.01267  Uiso   1.00
C30    C     0.02080   0.41611   0.38889   0.01267  Uiso   1.00
C31    C     0.94080   0.30103   0.37597   0.01267  Uiso   1.00
C32    C     0.80760   0.25101   0.29059   0.01267  Uiso   1.00
C33    C     0.75920   0.31516   0.21984   0.01267  Uiso   1.00
C34    C     0.99620   0.23527   0.45673   0.01267  Uiso   1.00
C35    C     0.02280   0.14530   0.82550   0.01267  Uiso   1.00
C36    C     0.99120   0.11040   0.91500   0.01267  Uiso   1.00
C37    C     0.01760   0.01925   0.95155   0.01267  Uiso   1.00
C38    C     0.07690   0.96375   0.89325   0.01267  Uiso   1.00
C39    C     0.10620   0.99951   0.80269   0.01267  Uiso   1.00
C40    C     0.72420   0.83523   0.49937   0.01267  Uiso   1.00
C41    C     0.66280   0.76599   0.57041   0.01267  Uiso   1.00
C42    C     0.53080   0.68092   0.52008   0.01267  Uiso   1.00
C43    C     0.47920   0.61111   0.58389   0.01267  Uiso   1.00
C44    C     0.55920   0.62403   0.69897   0.01267  Uiso   1.00
C45    C     0.69240   0.70941   0.74899   0.01267  Uiso   1.00
C46    C     0.74080   0.78016   0.68484   0.01267  Uiso   1.00
C47    C     0.50380   0.54327   0.76473   0.01267  Uiso   1.00
C48    C     0.47720   0.17450   0.85470   0.01267  Uiso   1.00
C49    C     0.50880   0.08500   0.88960   0.01267  Uiso   1.00
C50    C     0.48240   0.04845   0.98075   0.01267  Uiso   1.00
C51    C     0.42310   0.10675   0.03625   0.01267  Uiso   1.00
C52    C     0.39380   0.19731   0.00049   0.01267  Uiso   1.00
N1     N     0.92220   0.91133   0.22917   0.01267  Uiso   1.00
N2     N     0.57780   0.77083   0.08867   0.01267  Uiso   1.00
N3     N     0.07780   0.08867   0.77083   0.01267  Uiso   1.00
N4     N     0.42220   0.22917   0.91133   0.01267  Uiso   1.00
O1     O     0.33380   0.55355   0.92553   0.01267  Uiso   1.00
O2     O     0.16380   0.38873   0.79719   0.01267  Uiso   1.00
O3     O     0.88840   0.70773   0.46393   0.01267  Uiso   1.00
O4     O     0.07570   0.87212   0.56312   0.01267  Uiso   1.00
O5     O     0.89150   0.87713   0.31655   0.01267  Uiso   1.00
O6     O     0.16620   0.07447   0.44645   0.01267  Uiso   1.00
O7     O     0.33620   0.20281   0.61127   0.01267  Uiso   1.00
O8     O     0.61160   0.53607   0.29227   0.01267  Uiso   1.00
O9     O     0.42430   0.43688   0.12788   0.01267  Uiso   1.00
O10    O     0.60850   0.68345   0.12287   0.01267  Uiso   1.00
O11    O     0.66620   0.44645   0.07447   0.01267  Uiso   1.00
O12    O     0.83620   0.61127   0.20281   0.01267  Uiso   1.00
O13    O     0.11160   0.29227   0.53607   0.01267  Uiso   1.00
O14    O     0.92430   0.12788   0.43688   0.01267  Uiso   1.00
O15    O     0.10850   0.12287   0.68345   0.01267  Uiso   1.00
O16    O     0.83380   0.92553   0.55355   0.01267  Uiso   1.00
O17    O     0.66380   0.79719   0.38873   0.01267  Uiso   1.00
O18    O     0.38840   0.46393   0.70773   0.01267  Uiso   1.00
O19    O     0.57570   0.56312   0.87212   0.01267  Uiso   1.00
O20    O     0.39150   0.31655   0.87713   0.01267  Uiso   1.00
