data_MABJOP_clean
_audit_creation_date              2014-07-02
_audit_creation_method            'Materials Studio'
_symmetry_space_group_name_H-M    'P1'
_symmetry_Int_Tables_number       1
_symmetry_cell_setting            triclinic
loop_
_symmetry_equiv_pos_as_xyz
  x,y,z
_cell_length_a                    8.5284
_cell_length_b                    12.3675
_cell_length_c                    12.3675
_cell_angle_alpha                 116.3030
_cell_angle_beta                  99.0565
_cell_angle_gamma                 80.9435
loop_
_atom_site_label
_atom_site_type_symbol
_atom_site_fract_x
_atom_site_fract_y
_atom_site_fract_z
_atom_site_U_iso_or_equiv
_atom_site_adp_type
_atom_site_occupancy
Cu1    Cu    0.92565   0.59760   0.99396   0.01267  Uiso   1.00
Cu2    Cu    0.57435   0.99396   0.59760   0.01267  Uiso   1.00
Cu3    Cu    0.07435   0.40240   0.00604   0.01267  Uiso   1.00
Cu4    Cu    0.42565   0.00604   0.40240   0.01267  Uiso   1.00
H1     H     0.74610   0.27410   0.64970   0.01267  Uiso   1.00
H2     H     0.81530   0.36260   0.61020   0.01267  Uiso   1.00
H3     H     0.00040   0.15230   0.61870   0.01267  Uiso   1.00
H4     H     0.05130   0.23560   0.56380   0.01267  Uiso   1.00
H5     H     0.95800   0.05860   0.40500   0.01267  Uiso   1.00
H6     H     0.84220   0.17430   0.40630   0.01267  Uiso   1.00
H7     H     0.82020   0.85720   0.16500   0.01267  Uiso   1.00
H8     H     0.64210   0.02010   0.17410   0.01267  Uiso   1.00
H9     H     0.50520   0.83430   0.82310   0.01267  Uiso   1.00
H10    H     0.68760   0.67680   0.82320   0.01267  Uiso   1.00
H11    H     0.75390   0.64970   0.27410   0.01267  Uiso   1.00
H12    H     0.68470   0.61020   0.36260   0.01267  Uiso   1.00
H13    H     0.49960   0.61870   0.15230   0.01267  Uiso   1.00
H14    H     0.44870   0.56380   0.23560   0.01267  Uiso   1.00
H15    H     0.54200   0.40500   0.05860   0.01267  Uiso   1.00
H16    H     0.65780   0.40630   0.17430   0.01267  Uiso   1.00
H17    H     0.67980   0.16500   0.85720   0.01267  Uiso   1.00
H18    H     0.85790   0.17410   0.02010   0.01267  Uiso   1.00
H19    H     0.99480   0.82310   0.83430   0.01267  Uiso   1.00
H20    H     0.81240   0.82320   0.67680   0.01267  Uiso   1.00
H21    H     0.25390   0.72590   0.35030   0.01267  Uiso   1.00
H22    H     0.18470   0.63740   0.38980   0.01267  Uiso   1.00
H23    H     0.99960   0.84770   0.38130   0.01267  Uiso   1.00
H24    H     0.94870   0.76440   0.43620   0.01267  Uiso   1.00
H25    H     0.04200   0.94140   0.59500   0.01267  Uiso   1.00
H26    H     0.15780   0.82570   0.59370   0.01267  Uiso   1.00
H27    H     0.17980   0.14280   0.83500   0.01267  Uiso   1.00
H28    H     0.35790   0.97990   0.82590   0.01267  Uiso   1.00
H29    H     0.49480   0.16570   0.17690   0.01267  Uiso   1.00
H30    H     0.31240   0.32320   0.17680   0.01267  Uiso   1.00
H31    H     0.24610   0.35030   0.72590   0.01267  Uiso   1.00
H32    H     0.31530   0.38980   0.63740   0.01267  Uiso   1.00
H33    H     0.50040   0.38130   0.84770   0.01267  Uiso   1.00
H34    H     0.55130   0.43620   0.76440   0.01267  Uiso   1.00
H35    H     0.45800   0.59500   0.94140   0.01267  Uiso   1.00
H36    H     0.34220   0.59370   0.82570   0.01267  Uiso   1.00
H37    H     0.32020   0.83500   0.14280   0.01267  Uiso   1.00
H38    H     0.14210   0.82590   0.97990   0.01267  Uiso   1.00
H39    H     0.00520   0.17690   0.16570   0.01267  Uiso   1.00
H40    H     0.18760   0.17680   0.32320   0.01267  Uiso   1.00
C1     C     0.90670   0.38012   0.77966   0.01267  Uiso   1.00
C2     C     0.84480   0.30727   0.65013   0.01267  Uiso   1.00
C3     C     0.95930   0.20278   0.57482   0.01267  Uiso   1.00
C4     C     0.87910   0.12439   0.45141   0.01267  Uiso   1.00
C5     C     0.73880   0.06943   0.46059   0.01267  Uiso   1.00
C6     C     0.75590   0.85226   0.09314   0.01267  Uiso   1.00
C7     C     0.65000   0.95011   0.09909   0.01267  Uiso   1.00
C8     C     0.55610   0.94766   0.99834   0.01267  Uiso   1.00
C9     C     0.57060   0.84249   0.89551   0.01267  Uiso   1.00
C10    C     0.67920   0.74858   0.89642   0.01267  Uiso   1.00
C11    C     0.59330   0.77966   0.38012   0.01267  Uiso   1.00
C12    C     0.65520   0.65013   0.30727   0.01267  Uiso   1.00
C13    C     0.54070   0.57482   0.20278   0.01267  Uiso   1.00
C14    C     0.62090   0.45141   0.12439   0.01267  Uiso   1.00
C15    C     0.76120   0.46059   0.06943   0.01267  Uiso   1.00
C16    C     0.74410   0.09314   0.85226   0.01267  Uiso   1.00
C17    C     0.85000   0.09909   0.95011   0.01267  Uiso   1.00
C18    C     0.94390   0.99834   0.94766   0.01267  Uiso   1.00
C19    C     0.92940   0.89551   0.84249   0.01267  Uiso   1.00
C20    C     0.82080   0.89642   0.74858   0.01267  Uiso   1.00
C21    C     0.09330   0.61988   0.22034   0.01267  Uiso   1.00
C22    C     0.15520   0.69273   0.34987   0.01267  Uiso   1.00
C23    C     0.04070   0.79722   0.42518   0.01267  Uiso   1.00
C24    C     0.12090   0.87561   0.54859   0.01267  Uiso   1.00
C25    C     0.26120   0.93057   0.53941   0.01267  Uiso   1.00
C26    C     0.24410   0.14774   0.90686   0.01267  Uiso   1.00
C27    C     0.35000   0.04989   0.90091   0.01267  Uiso   1.00
C28    C     0.44390   0.05234   0.00166   0.01267  Uiso   1.00
C29    C     0.42940   0.15751   0.10449   0.01267  Uiso   1.00
C30    C     0.32080   0.25142   0.10358   0.01267  Uiso   1.00
C31    C     0.40670   0.22034   0.61988   0.01267  Uiso   1.00
C32    C     0.34480   0.34987   0.69273   0.01267  Uiso   1.00
C33    C     0.45930   0.42518   0.79722   0.01267  Uiso   1.00
C34    C     0.37910   0.54859   0.87561   0.01267  Uiso   1.00
C35    C     0.23880   0.53941   0.93057   0.01267  Uiso   1.00
C36    C     0.25590   0.90686   0.14774   0.01267  Uiso   1.00
C37    C     0.15000   0.90091   0.04989   0.01267  Uiso   1.00
C38    C     0.05610   0.00166   0.05234   0.01267  Uiso   1.00
C39    C     0.07060   0.10449   0.15751   0.01267  Uiso   1.00
C40    C     0.17920   0.10358   0.25142   0.01267  Uiso   1.00
N1     N     0.77270   0.75255   0.99335   0.01267  Uiso   1.00
N2     N     0.72730   0.99335   0.75255   0.01267  Uiso   1.00
N3     N     0.22730   0.24745   0.00665   0.01267  Uiso   1.00
N4     N     0.27270   0.00665   0.24745   0.01267  Uiso   1.00
O1     O     0.86590   0.49128   0.82394   0.01267  Uiso   1.00
O2     O     0.99110   0.32412   0.83466   0.01267  Uiso   1.00
O3     O     0.74820   0.04140   0.54650   0.01267  Uiso   1.00
O4     O     0.62120   0.05724   0.38214   0.01267  Uiso   1.00
O5     O     0.63410   0.82394   0.49128   0.01267  Uiso   1.00
O6     O     0.50890   0.83466   0.32412   0.01267  Uiso   1.00
O7     O     0.75180   0.54650   0.04140   0.01267  Uiso   1.00
O8     O     0.87880   0.38214   0.05724   0.01267  Uiso   1.00
O9     O     0.13410   0.50872   0.17606   0.01267  Uiso   1.00
O10    O     0.00890   0.67588   0.16534   0.01267  Uiso   1.00
O11    O     0.25180   0.95860   0.45350   0.01267  Uiso   1.00
O12    O     0.37880   0.94276   0.61786   0.01267  Uiso   1.00
O13    O     0.36590   0.17606   0.50872   0.01267  Uiso   1.00
O14    O     0.49110   0.16534   0.67588   0.01267  Uiso   1.00
O15    O     0.24820   0.45350   0.95860   0.01267  Uiso   1.00
O16    O     0.12120   0.61786   0.94276   0.01267  Uiso   1.00
