data_MALYOP_clean
_audit_creation_date              2014-07-02
_audit_creation_method            'Materials Studio'
_symmetry_space_group_name_H-M    'P1'
_symmetry_Int_Tables_number       1
_symmetry_cell_setting            triclinic
loop_
_symmetry_equiv_pos_as_xyz
  x,y,z
_cell_length_a                    15.4828
_cell_length_b                    22.3550
_cell_length_c                    24.9620
_cell_angle_alpha                 90.0000
_cell_angle_beta                  90.0000
_cell_angle_gamma                 99.5750
loop_
_atom_site_label
_atom_site_type_symbol
_atom_site_fract_x
_atom_site_fract_y
_atom_site_fract_z
_atom_site_U_iso_or_equiv
_atom_site_adp_type
_atom_site_occupancy
Ce1    Ce    0.37507   0.95724   0.01760   0.01267  Uiso   1.00
Ce2    Ce    0.62493   0.54276   0.51760   0.01267  Uiso   1.00
Ce3    Ce    0.62493   0.04276   0.98240   0.01267  Uiso   1.00
Ce4    Ce    0.37507   0.45724   0.48240   0.01267  Uiso   1.00
Cu1    Cu    0.99010   0.76030   0.25100   0.01267  Uiso   1.00
Cu2    Cu    0.00990   0.73970   0.75100   0.01267  Uiso   1.00
Cu3    Cu    0.00990   0.23970   0.74900   0.01267  Uiso   1.00
Cu4    Cu    0.99010   0.26030   0.24900   0.01267  Uiso   1.00
H1     H     0.53980   0.17940   0.96480   0.01267  Uiso   1.00
H2     H     0.28140   0.13910   0.94570   0.01267  Uiso   1.00
H3     H     0.43350   0.29430   0.81070   0.01267  Uiso   1.00
H4     H     0.39200   0.37820   0.94540   0.01267  Uiso   1.00
H5     H     0.39770   0.45150   0.86950   0.01267  Uiso   1.00
H6     H     0.58040   0.47500   0.68900   0.01267  Uiso   1.00
H7     H     0.32320   0.42220   0.66200   0.01267  Uiso   1.00
H8     H     0.56560   0.32920   0.91070   0.01267  Uiso   1.00
H9     H     0.58920   0.31680   0.00010   0.01267  Uiso   1.00
H10    H     0.67960   0.32490   0.97040   0.01267  Uiso   1.00
H11    H     0.63410   0.26020   0.98880   0.01267  Uiso   1.00
H12    H     0.67630   0.29560   0.86350   0.01267  Uiso   1.00
H13    H     0.59300   0.24890   0.84770   0.01267  Uiso   1.00
H14    H     0.65860   0.23130   0.89050   0.01267  Uiso   1.00
H15    H     0.26320   0.27890   0.87900   0.01267  Uiso   1.00
H16    H     0.14660   0.19420   0.93200   0.01267  Uiso   1.00
H17    H     0.13870   0.26130   0.91750   0.01267  Uiso   1.00
H18    H     0.20090   0.24810   0.96400   0.01267  Uiso   1.00
H19    H     0.22660   0.15460   0.84890   0.01267  Uiso   1.00
H20    H     0.26610   0.20930   0.81220   0.01267  Uiso   1.00
H21    H     0.16700   0.20020   0.82850   0.01267  Uiso   1.00
H22    H     0.57280   0.41970   0.82470   0.01267  Uiso   1.00
H23    H     0.67510   0.50510   0.83220   0.01267  Uiso   1.00
H24    H     0.59190   0.52800   0.80970   0.01267  Uiso   1.00
H25    H     0.66930   0.52060   0.77110   0.01267  Uiso   1.00
H26    H     0.68970   0.42050   0.73600   0.01267  Uiso   1.00
H27    H     0.62830   0.36100   0.75400   0.01267  Uiso   1.00
H28    H     0.70190   0.39260   0.79250   0.01267  Uiso   1.00
H29    H     0.26480   0.36600   0.79230   0.01267  Uiso   1.00
H30    H     0.19330   0.29280   0.73950   0.01267  Uiso   1.00
H31    H     0.29380   0.29570   0.72920   0.01267  Uiso   1.00
H32    H     0.23650   0.32440   0.68780   0.01267  Uiso   1.00
H33    H     0.19980   0.43000   0.70980   0.01267  Uiso   1.00
H34    H     0.22740   0.45700   0.76640   0.01267  Uiso   1.00
H35    H     0.14720   0.40440   0.76080   0.01267  Uiso   1.00
H36    H     0.89790   0.62560   0.43150   0.01267  Uiso   1.00
H37    H     0.74260   0.75190   0.43120   0.01267  Uiso   1.00
H38    H     0.05660   0.85800   0.43290   0.01267  Uiso   1.00
H39    H     0.16870   0.90990   0.36880   0.01267  Uiso   1.00
H40    H     0.30280   0.84320   0.18360   0.01267  Uiso   1.00
H41    H     0.14830   0.97070   0.16470   0.01267  Uiso   1.00
H42    H     0.07550   0.72700   0.36880   0.01267  Uiso   1.00
H43    H     0.98680   0.60520   0.35380   0.01267  Uiso   1.00
H44    H     0.08780   0.62090   0.34290   0.01267  Uiso   1.00
H45    H     0.02230   0.65150   0.30860   0.01267  Uiso   1.00
H46    H     0.06610   0.68400   0.46680   0.01267  Uiso   1.00
H47    H     0.15250   0.69750   0.43310   0.01267  Uiso   1.00
H48    H     0.09710   0.63200   0.43360   0.01267  Uiso   1.00
H49    H     0.89070   0.87310   0.37910   0.01267  Uiso   1.00
H50    H     0.82820   0.83280   0.29970   0.01267  Uiso   1.00
H51    H     0.77840   0.88410   0.31970   0.01267  Uiso   1.00
H52    H     0.73660   0.81590   0.32750   0.01267  Uiso   1.00
H53    H     0.72390   0.84670   0.42620   0.01267  Uiso   1.00
H54    H     0.77620   0.91160   0.41440   0.01267  Uiso   1.00
H55    H     0.80910   0.87110   0.45870   0.01267  Uiso   1.00
H56    H     0.20560   0.78950   0.31690   0.01267  Uiso   1.00
H57    H     0.37410   0.81080   0.26600   0.01267  Uiso   1.00
H58    H     0.35590   0.77470   0.31980   0.01267  Uiso   1.00
H59    H     0.35170   0.84420   0.31820   0.01267  Uiso   1.00
H60    H     0.16880   0.72780   0.23180   0.01267  Uiso   1.00
H61    H     0.21830   0.69640   0.27560   0.01267  Uiso   1.00
H62    H     0.26990   0.72840   0.22660   0.01267  Uiso   1.00
H63    H     0.02400   0.94140   0.28350   0.01267  Uiso   1.00
H64    H     0.10030   0.04310   0.22550   0.01267  Uiso   1.00
H65    H     0.13750   0.02570   0.28070   0.01267  Uiso   1.00
H66    H     0.04330   0.04250   0.27750   0.01267  Uiso   1.00
H67    H     0.96090   0.98920   0.19880   0.01267  Uiso   1.00
H68    H     0.92310   0.92600   0.22390   0.01267  Uiso   1.00
H69    H     0.99170   0.93030   0.17730   0.01267  Uiso   1.00
H70    H     0.46020   0.32060   0.46480   0.01267  Uiso   1.00
H71    H     0.71860   0.36090   0.44570   0.01267  Uiso   1.00
H72    H     0.56650   0.20570   0.31070   0.01267  Uiso   1.00
H73    H     0.60800   0.12180   0.44540   0.01267  Uiso   1.00
H74    H     0.60230   0.04850   0.36950   0.01267  Uiso   1.00
H75    H     0.41960   0.02500   0.18900   0.01267  Uiso   1.00
H76    H     0.67680   0.07780   0.16200   0.01267  Uiso   1.00
H77    H     0.43440   0.17080   0.41070   0.01267  Uiso   1.00
H78    H     0.41080   0.18320   0.50010   0.01267  Uiso   1.00
H79    H     0.32040   0.17510   0.47040   0.01267  Uiso   1.00
H80    H     0.36590   0.23980   0.48880   0.01267  Uiso   1.00
H81    H     0.32370   0.20440   0.36350   0.01267  Uiso   1.00
H82    H     0.40700   0.25110   0.34770   0.01267  Uiso   1.00
H83    H     0.34140   0.26870   0.39050   0.01267  Uiso   1.00
H84    H     0.73680   0.22110   0.37900   0.01267  Uiso   1.00
H85    H     0.85340   0.30580   0.43200   0.01267  Uiso   1.00
H86    H     0.86130   0.23870   0.41750   0.01267  Uiso   1.00
H87    H     0.79910   0.25190   0.46400   0.01267  Uiso   1.00
H88    H     0.77340   0.34540   0.34890   0.01267  Uiso   1.00
H89    H     0.73390   0.29070   0.31220   0.01267  Uiso   1.00
H90    H     0.83300   0.29980   0.32850   0.01267  Uiso   1.00
H91    H     0.42720   0.08030   0.32470   0.01267  Uiso   1.00
H92    H     0.32490   0.99490   0.33220   0.01267  Uiso   1.00
H93    H     0.40810   0.97200   0.30970   0.01267  Uiso   1.00
H94    H     0.33070   0.97940   0.27110   0.01267  Uiso   1.00
H95    H     0.31030   0.07950   0.23600   0.01267  Uiso   1.00
H96    H     0.37170   0.13900   0.25400   0.01267  Uiso   1.00
H97    H     0.29810   0.10740   0.29250   0.01267  Uiso   1.00
H98    H     0.73520   0.13400   0.29230   0.01267  Uiso   1.00
H99    H     0.80670   0.20720   0.23950   0.01267  Uiso   1.00
H100   H     0.70620   0.20430   0.22920   0.01267  Uiso   1.00
H101   H     0.76350   0.17560   0.18780   0.01267  Uiso   1.00
H102   H     0.80020   0.07000   0.20980   0.01267  Uiso   1.00
H103   H     0.77260   0.04300   0.26640   0.01267  Uiso   1.00
H104   H     0.85280   0.09560   0.26080   0.01267  Uiso   1.00
H105   H     0.10210   0.87440   0.93150   0.01267  Uiso   1.00
H106   H     0.25740   0.74810   0.93120   0.01267  Uiso   1.00
H107   H     0.94340   0.64200   0.93290   0.01267  Uiso   1.00
H108   H     0.83130   0.59010   0.86880   0.01267  Uiso   1.00
H109   H     0.69720   0.65680   0.68360   0.01267  Uiso   1.00
H110   H     0.85170   0.52930   0.66470   0.01267  Uiso   1.00
H111   H     0.92450   0.77300   0.86880   0.01267  Uiso   1.00
H112   H     0.01320   0.89480   0.85380   0.01267  Uiso   1.00
H113   H     0.91220   0.87910   0.84290   0.01267  Uiso   1.00
H114   H     0.97770   0.84850   0.80860   0.01267  Uiso   1.00
H115   H     0.93390   0.81600   0.96680   0.01267  Uiso   1.00
H116   H     0.84750   0.80250   0.93310   0.01267  Uiso   1.00
H117   H     0.90290   0.86800   0.93360   0.01267  Uiso   1.00
H118   H     0.10930   0.62690   0.87910   0.01267  Uiso   1.00
H119   H     0.17180   0.66720   0.79970   0.01267  Uiso   1.00
H120   H     0.22160   0.61590   0.81970   0.01267  Uiso   1.00
H121   H     0.26340   0.68410   0.82750   0.01267  Uiso   1.00
H122   H     0.27610   0.65330   0.92620   0.01267  Uiso   1.00
H123   H     0.22380   0.58840   0.91440   0.01267  Uiso   1.00
H124   H     0.19090   0.62890   0.95870   0.01267  Uiso   1.00
H125   H     0.79440   0.71050   0.81690   0.01267  Uiso   1.00
H126   H     0.62590   0.68920   0.76600   0.01267  Uiso   1.00
H127   H     0.64410   0.72530   0.81980   0.01267  Uiso   1.00
H128   H     0.64830   0.65580   0.81820   0.01267  Uiso   1.00
H129   H     0.83120   0.77220   0.73180   0.01267  Uiso   1.00
H130   H     0.78170   0.80360   0.77560   0.01267  Uiso   1.00
H131   H     0.73010   0.77160   0.72660   0.01267  Uiso   1.00
H132   H     0.97600   0.55860   0.78350   0.01267  Uiso   1.00
H133   H     0.89970   0.45690   0.72550   0.01267  Uiso   1.00
H134   H     0.86250   0.47430   0.78070   0.01267  Uiso   1.00
H135   H     0.95670   0.45750   0.77750   0.01267  Uiso   1.00
H136   H     0.03910   0.51080   0.69880   0.01267  Uiso   1.00
H137   H     0.07690   0.57400   0.72390   0.01267  Uiso   1.00
H138   H     0.00830   0.56970   0.67730   0.01267  Uiso   1.00
H139   H     0.46020   0.82060   0.03520   0.01267  Uiso   1.00
H140   H     0.71860   0.86090   0.05430   0.01267  Uiso   1.00
H141   H     0.56650   0.70570   0.18930   0.01267  Uiso   1.00
H142   H     0.60800   0.62180   0.05460   0.01267  Uiso   1.00
H143   H     0.60230   0.54850   0.13050   0.01267  Uiso   1.00
H144   H     0.41960   0.52500   0.31100   0.01267  Uiso   1.00
H145   H     0.67680   0.57780   0.33800   0.01267  Uiso   1.00
H146   H     0.43440   0.67080   0.08930   0.01267  Uiso   1.00
H147   H     0.41080   0.68320   0.99990   0.01267  Uiso   1.00
H148   H     0.32040   0.67510   0.02960   0.01267  Uiso   1.00
H149   H     0.36590   0.73980   0.01120   0.01267  Uiso   1.00
H150   H     0.32370   0.70440   0.13650   0.01267  Uiso   1.00
H151   H     0.40700   0.75110   0.15230   0.01267  Uiso   1.00
H152   H     0.34140   0.76870   0.10950   0.01267  Uiso   1.00
H153   H     0.73680   0.72110   0.12100   0.01267  Uiso   1.00
H154   H     0.85340   0.80580   0.06800   0.01267  Uiso   1.00
H155   H     0.86130   0.73870   0.08250   0.01267  Uiso   1.00
H156   H     0.79910   0.75190   0.03600   0.01267  Uiso   1.00
H157   H     0.77340   0.84540   0.15110   0.01267  Uiso   1.00
H158   H     0.73390   0.79070   0.18780   0.01267  Uiso   1.00
H159   H     0.83300   0.79980   0.17150   0.01267  Uiso   1.00
H160   H     0.42720   0.58030   0.17530   0.01267  Uiso   1.00
H161   H     0.32490   0.49490   0.16780   0.01267  Uiso   1.00
H162   H     0.40810   0.47200   0.19030   0.01267  Uiso   1.00
H163   H     0.33070   0.47940   0.22890   0.01267  Uiso   1.00
H164   H     0.31030   0.57950   0.26400   0.01267  Uiso   1.00
H165   H     0.37170   0.63900   0.24600   0.01267  Uiso   1.00
H166   H     0.29810   0.60740   0.20750   0.01267  Uiso   1.00
H167   H     0.73520   0.63400   0.20770   0.01267  Uiso   1.00
H168   H     0.80670   0.70720   0.26050   0.01267  Uiso   1.00
H169   H     0.70620   0.70430   0.27080   0.01267  Uiso   1.00
H170   H     0.76350   0.67560   0.31220   0.01267  Uiso   1.00
H171   H     0.80020   0.57000   0.29020   0.01267  Uiso   1.00
H172   H     0.77260   0.54300   0.23360   0.01267  Uiso   1.00
H173   H     0.85280   0.59560   0.23920   0.01267  Uiso   1.00
H174   H     0.10210   0.37440   0.56850   0.01267  Uiso   1.00
H175   H     0.25740   0.24810   0.56880   0.01267  Uiso   1.00
H176   H     0.94340   0.14200   0.56710   0.01267  Uiso   1.00
H177   H     0.83130   0.09010   0.63120   0.01267  Uiso   1.00
H178   H     0.69720   0.15680   0.81640   0.01267  Uiso   1.00
H179   H     0.85170   0.02930   0.83530   0.01267  Uiso   1.00
H180   H     0.92450   0.27300   0.63120   0.01267  Uiso   1.00
H181   H     0.01320   0.39480   0.64620   0.01267  Uiso   1.00
H182   H     0.91220   0.37910   0.65710   0.01267  Uiso   1.00
H183   H     0.97770   0.34850   0.69140   0.01267  Uiso   1.00
H184   H     0.93390   0.31600   0.53320   0.01267  Uiso   1.00
H185   H     0.84750   0.30250   0.56690   0.01267  Uiso   1.00
H186   H     0.90290   0.36800   0.56640   0.01267  Uiso   1.00
H187   H     0.10930   0.12690   0.62090   0.01267  Uiso   1.00
H188   H     0.17180   0.16720   0.70030   0.01267  Uiso   1.00
H189   H     0.22160   0.11590   0.68030   0.01267  Uiso   1.00
H190   H     0.26340   0.18410   0.67250   0.01267  Uiso   1.00
H191   H     0.27610   0.15330   0.57380   0.01267  Uiso   1.00
H192   H     0.22380   0.08840   0.58560   0.01267  Uiso   1.00
H193   H     0.19090   0.12890   0.54130   0.01267  Uiso   1.00
H194   H     0.79440   0.21050   0.68310   0.01267  Uiso   1.00
H195   H     0.62590   0.18920   0.73400   0.01267  Uiso   1.00
H196   H     0.64410   0.22530   0.68020   0.01267  Uiso   1.00
H197   H     0.64830   0.15580   0.68180   0.01267  Uiso   1.00
H198   H     0.83120   0.27220   0.76820   0.01267  Uiso   1.00
H199   H     0.78170   0.30360   0.72440   0.01267  Uiso   1.00
H200   H     0.73010   0.27160   0.77340   0.01267  Uiso   1.00
H201   H     0.97600   0.05860   0.71650   0.01267  Uiso   1.00
H202   H     0.89970   0.95690   0.77450   0.01267  Uiso   1.00
H203   H     0.86250   0.97430   0.71930   0.01267  Uiso   1.00
H204   H     0.95670   0.95750   0.72250   0.01267  Uiso   1.00
H205   H     0.03910   0.01080   0.80120   0.01267  Uiso   1.00
H206   H     0.07690   0.07400   0.77610   0.01267  Uiso   1.00
H207   H     0.00830   0.06970   0.82270   0.01267  Uiso   1.00
H208   H     0.53980   0.67940   0.53520   0.01267  Uiso   1.00
H209   H     0.28140   0.63910   0.55430   0.01267  Uiso   1.00
H210   H     0.43350   0.79430   0.68930   0.01267  Uiso   1.00
H211   H     0.39200   0.87820   0.55460   0.01267  Uiso   1.00
H212   H     0.39770   0.95150   0.63050   0.01267  Uiso   1.00
H213   H     0.58040   0.97500   0.81100   0.01267  Uiso   1.00
H214   H     0.32320   0.92220   0.83800   0.01267  Uiso   1.00
H215   H     0.56560   0.82920   0.58930   0.01267  Uiso   1.00
H216   H     0.58920   0.81680   0.49990   0.01267  Uiso   1.00
H217   H     0.67960   0.82490   0.52960   0.01267  Uiso   1.00
H218   H     0.63410   0.76020   0.51120   0.01267  Uiso   1.00
H219   H     0.67630   0.79560   0.63650   0.01267  Uiso   1.00
H220   H     0.59300   0.74890   0.65230   0.01267  Uiso   1.00
H221   H     0.65860   0.73130   0.60950   0.01267  Uiso   1.00
H222   H     0.26320   0.77890   0.62100   0.01267  Uiso   1.00
H223   H     0.14660   0.69420   0.56800   0.01267  Uiso   1.00
H224   H     0.13870   0.76130   0.58250   0.01267  Uiso   1.00
H225   H     0.20090   0.74810   0.53600   0.01267  Uiso   1.00
H226   H     0.22660   0.65460   0.65110   0.01267  Uiso   1.00
H227   H     0.26610   0.70930   0.68780   0.01267  Uiso   1.00
H228   H     0.16700   0.70020   0.67150   0.01267  Uiso   1.00
H229   H     0.57280   0.91970   0.67530   0.01267  Uiso   1.00
H230   H     0.67510   0.00510   0.66780   0.01267  Uiso   1.00
H231   H     0.59190   0.02800   0.69030   0.01267  Uiso   1.00
H232   H     0.66930   0.02060   0.72890   0.01267  Uiso   1.00
H233   H     0.68970   0.92050   0.76400   0.01267  Uiso   1.00
H234   H     0.62830   0.86100   0.74600   0.01267  Uiso   1.00
H235   H     0.70190   0.89260   0.70750   0.01267  Uiso   1.00
H236   H     0.26480   0.86600   0.70770   0.01267  Uiso   1.00
H237   H     0.19330   0.79280   0.76050   0.01267  Uiso   1.00
H238   H     0.29380   0.79570   0.77080   0.01267  Uiso   1.00
H239   H     0.23650   0.82440   0.81220   0.01267  Uiso   1.00
H240   H     0.19980   0.93000   0.79020   0.01267  Uiso   1.00
H241   H     0.22740   0.95700   0.73360   0.01267  Uiso   1.00
H242   H     0.14720   0.90440   0.73920   0.01267  Uiso   1.00
H243   H     0.89790   0.12560   0.06850   0.01267  Uiso   1.00
H244   H     0.74260   0.25190   0.06880   0.01267  Uiso   1.00
H245   H     0.05660   0.35800   0.06710   0.01267  Uiso   1.00
H246   H     0.16870   0.40990   0.13120   0.01267  Uiso   1.00
H247   H     0.30280   0.34320   0.31640   0.01267  Uiso   1.00
H248   H     0.14830   0.47070   0.33530   0.01267  Uiso   1.00
H249   H     0.07550   0.22700   0.13120   0.01267  Uiso   1.00
H250   H     0.98680   0.10520   0.14620   0.01267  Uiso   1.00
H251   H     0.08780   0.12090   0.15710   0.01267  Uiso   1.00
H252   H     0.02230   0.15150   0.19140   0.01267  Uiso   1.00
H253   H     0.06610   0.18400   0.03320   0.01267  Uiso   1.00
H254   H     0.15250   0.19750   0.06690   0.01267  Uiso   1.00
H255   H     0.09710   0.13200   0.06640   0.01267  Uiso   1.00
H256   H     0.89070   0.37310   0.12090   0.01267  Uiso   1.00
H257   H     0.82820   0.33280   0.20030   0.01267  Uiso   1.00
H258   H     0.77840   0.38410   0.18030   0.01267  Uiso   1.00
H259   H     0.73660   0.31590   0.17250   0.01267  Uiso   1.00
H260   H     0.72390   0.34670   0.07380   0.01267  Uiso   1.00
H261   H     0.77620   0.41160   0.08560   0.01267  Uiso   1.00
H262   H     0.80910   0.37110   0.04130   0.01267  Uiso   1.00
H263   H     0.20560   0.28950   0.18310   0.01267  Uiso   1.00
H264   H     0.37410   0.31080   0.23400   0.01267  Uiso   1.00
H265   H     0.35590   0.27470   0.18020   0.01267  Uiso   1.00
H266   H     0.35170   0.34420   0.18180   0.01267  Uiso   1.00
H267   H     0.16880   0.22780   0.26820   0.01267  Uiso   1.00
H268   H     0.21830   0.19640   0.22440   0.01267  Uiso   1.00
H269   H     0.26990   0.22840   0.27340   0.01267  Uiso   1.00
H270   H     0.02400   0.44140   0.21650   0.01267  Uiso   1.00
H271   H     0.10030   0.54310   0.27450   0.01267  Uiso   1.00
H272   H     0.13750   0.52570   0.21930   0.01267  Uiso   1.00
H273   H     0.04330   0.54250   0.22250   0.01267  Uiso   1.00
H274   H     0.96090   0.48920   0.30120   0.01267  Uiso   1.00
H275   H     0.92310   0.42600   0.27610   0.01267  Uiso   1.00
H276   H     0.99170   0.43030   0.32270   0.01267  Uiso   1.00
C1     C     0.40780   0.08940   0.98300   0.01267  Uiso   1.00
C2     C     0.40940   0.15010   0.96010   0.01267  Uiso   1.00
C3     C     0.48750   0.19040   0.95330   0.01267  Uiso   1.00
C4     C     0.48830   0.24660   0.92960   0.01267  Uiso   1.00
C5     C     0.41000   0.26050   0.91240   0.01267  Uiso   1.00
C6     C     0.33120   0.22190   0.91630   0.01267  Uiso   1.00
C7     C     0.33340   0.16620   0.94150   0.01267  Uiso   1.00
C8     C     0.42450   0.32440   0.83470   0.01267  Uiso   1.00
C9     C     0.40070   0.37050   0.90940   0.01267  Uiso   1.00
C10    C     0.40510   0.41120   0.86730   0.01267  Uiso   1.00
C11    C     0.43210   0.40940   0.77130   0.01267  Uiso   1.00
C12    C     0.51450   0.43590   0.75330   0.01267  Uiso   1.00
C13    C     0.52530   0.45730   0.70100   0.01267  Uiso   1.00
C14    C     0.45360   0.45220   0.66680   0.01267  Uiso   1.00
C15    C     0.37110   0.42570   0.68490   0.01267  Uiso   1.00
C16    C     0.36040   0.40420   0.73710   0.01267  Uiso   1.00
C17    C     0.46850   0.47380   0.60740   0.01267  Uiso   1.00
C18    C     0.57790   0.28960   0.92250   0.01267  Uiso   1.00
C19    C     0.62430   0.29870   0.97520   0.01267  Uiso   1.00
C20    C     0.63170   0.26380   0.87650   0.01267  Uiso   1.00
C21    C     0.24920   0.23690   0.89160   0.01267  Uiso   1.00
C22    C     0.17780   0.23500   0.92950   0.01267  Uiso   1.00
C23    C     0.22480   0.19630   0.84020   0.01267  Uiso   1.00
C24    C     0.59380   0.43830   0.79060   0.01267  Uiso   1.00
C25    C     0.63650   0.50420   0.80200   0.01267  Uiso   1.00
C26    C     0.65990   0.39930   0.76580   0.01267  Uiso   1.00
C27    C     0.26360   0.37540   0.75400   0.01267  Uiso   1.00
C28    C     0.24520   0.31700   0.72510   0.01267  Uiso   1.00
C29    C     0.20420   0.42070   0.74710   0.01267  Uiso   1.00
C30    C     0.74970   0.63610   0.46430   0.01267  Uiso   1.00
C31    C     0.81360   0.68260   0.43660   0.01267  Uiso   1.00
C32    C     0.88900   0.66490   0.42370   0.01267  Uiso   1.00
C33    C     0.95570   0.70540   0.39850   0.01267  Uiso   1.00
C34    C     0.94030   0.76200   0.38710   0.01267  Uiso   1.00
C35    C     0.86500   0.78250   0.39780   0.01267  Uiso   1.00
C36    C     0.79650   0.74080   0.42350   0.01267  Uiso   1.00
C37    C     0.02950   0.81200   0.31360   0.01267  Uiso   1.00
C38    C     0.06150   0.85130   0.39640   0.01267  Uiso   1.00
C39    C     0.12060   0.88070   0.36040   0.01267  Uiso   1.00
C40    C     0.15100   0.87350   0.26200   0.01267  Uiso   1.00
C41    C     0.21700   0.84070   0.24660   0.01267  Uiso   1.00
C42    C     0.25720   0.86140   0.19670   0.01267  Uiso   1.00
C43    C     0.22980   0.90830   0.16740   0.01267  Uiso   1.00
C44    C     0.16350   0.93910   0.18490   0.01267  Uiso   1.00
C45    C     0.12060   0.92210   0.23280   0.01267  Uiso   1.00
C46    C     0.27860   0.91970   0.11300   0.01267  Uiso   1.00
C47    C     0.04150   0.69110   0.38570   0.01267  Uiso   1.00
C48    C     0.03380   0.63680   0.34360   0.01267  Uiso   1.00
C49    C     0.09430   0.67460   0.43440   0.01267  Uiso   1.00
C50    C     0.83620   0.84390   0.38230   0.01267  Uiso   1.00
C51    C     0.79100   0.84420   0.32700   0.01267  Uiso   1.00
C52    C     0.78100   0.87080   0.42430   0.01267  Uiso   1.00
C53    C     0.24130   0.79240   0.28440   0.01267  Uiso   1.00
C54    C     0.34020   0.80690   0.29840   0.01267  Uiso   1.00
C55    C     0.22270   0.73000   0.25130   0.01267  Uiso   1.00
C56    C     0.04850   0.95840   0.24950   0.01267  Uiso   1.00
C57    C     0.08570   0.02320   0.25920   0.01267  Uiso   1.00
C58    C     0.97410   0.95020   0.20860   0.01267  Uiso   1.00
C59    C     0.59220   0.41060   0.48300   0.01267  Uiso   1.00
C60    C     0.59060   0.34990   0.46010   0.01267  Uiso   1.00
C61    C     0.51250   0.30960   0.45330   0.01267  Uiso   1.00
C62    C     0.51170   0.25340   0.42960   0.01267  Uiso   1.00
C63    C     0.59000   0.23950   0.41240   0.01267  Uiso   1.00
C64    C     0.66880   0.27810   0.41630   0.01267  Uiso   1.00
C65    C     0.66660   0.33380   0.44150   0.01267  Uiso   1.00
C66    C     0.57550   0.17560   0.33470   0.01267  Uiso   1.00
C67    C     0.59930   0.12950   0.40940   0.01267  Uiso   1.00
C68    C     0.59490   0.08880   0.36730   0.01267  Uiso   1.00
C69    C     0.56790   0.09060   0.27130   0.01267  Uiso   1.00
C70    C     0.48550   0.06410   0.25330   0.01267  Uiso   1.00
C71    C     0.47470   0.04270   0.20100   0.01267  Uiso   1.00
C72    C     0.54640   0.04780   0.16680   0.01267  Uiso   1.00
C73    C     0.62890   0.07430   0.18490   0.01267  Uiso   1.00
C74    C     0.63960   0.09580   0.23710   0.01267  Uiso   1.00
C75    C     0.53150   0.02620   0.10740   0.01267  Uiso   1.00
C76    C     0.42210   0.21040   0.42250   0.01267  Uiso   1.00
C77    C     0.37570   0.20130   0.47520   0.01267  Uiso   1.00
C78    C     0.36830   0.23620   0.37650   0.01267  Uiso   1.00
C79    C     0.75080   0.26310   0.39160   0.01267  Uiso   1.00
C80    C     0.82220   0.26500   0.42950   0.01267  Uiso   1.00
C81    C     0.77520   0.30370   0.34020   0.01267  Uiso   1.00
C82    C     0.40620   0.06170   0.29060   0.01267  Uiso   1.00
C83    C     0.36350   0.99580   0.30200   0.01267  Uiso   1.00
C84    C     0.34010   0.10070   0.26580   0.01267  Uiso   1.00
C85    C     0.73640   0.12460   0.25400   0.01267  Uiso   1.00
C86    C     0.75480   0.18300   0.22510   0.01267  Uiso   1.00
C87    C     0.79580   0.07930   0.24710   0.01267  Uiso   1.00
C88    C     0.25030   0.86390   0.96430   0.01267  Uiso   1.00
C89    C     0.18640   0.81740   0.93660   0.01267  Uiso   1.00
C90    C     0.11100   0.83510   0.92370   0.01267  Uiso   1.00
C91    C     0.04430   0.79460   0.89850   0.01267  Uiso   1.00
C92    C     0.05970   0.73800   0.88710   0.01267  Uiso   1.00
C93    C     0.13500   0.71750   0.89780   0.01267  Uiso   1.00
C94    C     0.20350   0.75920   0.92350   0.01267  Uiso   1.00
C95    C     0.97050   0.68800   0.81360   0.01267  Uiso   1.00
C96    C     0.93850   0.64870   0.89640   0.01267  Uiso   1.00
C97    C     0.87940   0.61930   0.86040   0.01267  Uiso   1.00
C98    C     0.84900   0.62650   0.76200   0.01267  Uiso   1.00
C99    C     0.78300   0.65930   0.74660   0.01267  Uiso   1.00
C100   C     0.74280   0.63860   0.69670   0.01267  Uiso   1.00
C101   C     0.77020   0.59170   0.66740   0.01267  Uiso   1.00
C102   C     0.83650   0.56090   0.68490   0.01267  Uiso   1.00
C103   C     0.87940   0.57790   0.73280   0.01267  Uiso   1.00
C104   C     0.72140   0.58030   0.61300   0.01267  Uiso   1.00
C105   C     0.95850   0.80890   0.88570   0.01267  Uiso   1.00
C106   C     0.96620   0.86320   0.84360   0.01267  Uiso   1.00
C107   C     0.90570   0.82540   0.93440   0.01267  Uiso   1.00
C108   C     0.16380   0.65610   0.88230   0.01267  Uiso   1.00
C109   C     0.20900   0.65580   0.82700   0.01267  Uiso   1.00
C110   C     0.21900   0.62920   0.92430   0.01267  Uiso   1.00
C111   C     0.75870   0.70760   0.78440   0.01267  Uiso   1.00
C112   C     0.65980   0.69310   0.79840   0.01267  Uiso   1.00
C113   C     0.77730   0.77000   0.75130   0.01267  Uiso   1.00
C114   C     0.95150   0.54160   0.74950   0.01267  Uiso   1.00
C115   C     0.91430   0.47680   0.75920   0.01267  Uiso   1.00
C116   C     0.02590   0.54980   0.70860   0.01267  Uiso   1.00
C117   C     0.59220   0.91060   0.01700   0.01267  Uiso   1.00
C118   C     0.59060   0.84990   0.03990   0.01267  Uiso   1.00
C119   C     0.51250   0.80960   0.04670   0.01267  Uiso   1.00
C120   C     0.51170   0.75340   0.07040   0.01267  Uiso   1.00
C121   C     0.59000   0.73950   0.08760   0.01267  Uiso   1.00
C122   C     0.66880   0.77810   0.08370   0.01267  Uiso   1.00
C123   C     0.66660   0.83380   0.05850   0.01267  Uiso   1.00
C124   C     0.57550   0.67560   0.16530   0.01267  Uiso   1.00
C125   C     0.59930   0.62950   0.09060   0.01267  Uiso   1.00
C126   C     0.59490   0.58880   0.13270   0.01267  Uiso   1.00
C127   C     0.56790   0.59060   0.22870   0.01267  Uiso   1.00
C128   C     0.48550   0.56410   0.24670   0.01267  Uiso   1.00
C129   C     0.47470   0.54270   0.29900   0.01267  Uiso   1.00
C130   C     0.54640   0.54780   0.33320   0.01267  Uiso   1.00
C131   C     0.62890   0.57430   0.31510   0.01267  Uiso   1.00
C132   C     0.63960   0.59580   0.26290   0.01267  Uiso   1.00
C133   C     0.53150   0.52620   0.39260   0.01267  Uiso   1.00
C134   C     0.42210   0.71040   0.07750   0.01267  Uiso   1.00
C135   C     0.37570   0.70130   0.02480   0.01267  Uiso   1.00
C136   C     0.36830   0.73620   0.12350   0.01267  Uiso   1.00
C137   C     0.75080   0.76310   0.10840   0.01267  Uiso   1.00
C138   C     0.82220   0.76500   0.07050   0.01267  Uiso   1.00
C139   C     0.77520   0.80370   0.15980   0.01267  Uiso   1.00
C140   C     0.40620   0.56170   0.20940   0.01267  Uiso   1.00
C141   C     0.36350   0.49580   0.19800   0.01267  Uiso   1.00
C142   C     0.34010   0.60070   0.23420   0.01267  Uiso   1.00
C143   C     0.73640   0.62460   0.24600   0.01267  Uiso   1.00
C144   C     0.75480   0.68300   0.27490   0.01267  Uiso   1.00
C145   C     0.79580   0.57930   0.25290   0.01267  Uiso   1.00
C146   C     0.25030   0.36390   0.53570   0.01267  Uiso   1.00
C147   C     0.18640   0.31740   0.56340   0.01267  Uiso   1.00
C148   C     0.11100   0.33510   0.57630   0.01267  Uiso   1.00
C149   C     0.04430   0.29460   0.60150   0.01267  Uiso   1.00
C150   C     0.05970   0.23800   0.61290   0.01267  Uiso   1.00
C151   C     0.13500   0.21750   0.60220   0.01267  Uiso   1.00
C152   C     0.20350   0.25920   0.57650   0.01267  Uiso   1.00
C153   C     0.97050   0.18800   0.68640   0.01267  Uiso   1.00
C154   C     0.93850   0.14870   0.60360   0.01267  Uiso   1.00
C155   C     0.87940   0.11930   0.63960   0.01267  Uiso   1.00
C156   C     0.84900   0.12650   0.73800   0.01267  Uiso   1.00
C157   C     0.78300   0.15930   0.75340   0.01267  Uiso   1.00
C158   C     0.74280   0.13860   0.80330   0.01267  Uiso   1.00
C159   C     0.77020   0.09170   0.83260   0.01267  Uiso   1.00
C160   C     0.83650   0.06090   0.81510   0.01267  Uiso   1.00
C161   C     0.87940   0.07790   0.76720   0.01267  Uiso   1.00
C162   C     0.72140   0.08030   0.88700   0.01267  Uiso   1.00
C163   C     0.95850   0.30890   0.61430   0.01267  Uiso   1.00
C164   C     0.96620   0.36320   0.65640   0.01267  Uiso   1.00
C165   C     0.90570   0.32540   0.56560   0.01267  Uiso   1.00
C166   C     0.16380   0.15610   0.61770   0.01267  Uiso   1.00
C167   C     0.20900   0.15580   0.67300   0.01267  Uiso   1.00
C168   C     0.21900   0.12920   0.57570   0.01267  Uiso   1.00
C169   C     0.75870   0.20760   0.71560   0.01267  Uiso   1.00
C170   C     0.65980   0.19310   0.70160   0.01267  Uiso   1.00
C171   C     0.77730   0.27000   0.74870   0.01267  Uiso   1.00
C172   C     0.95150   0.04160   0.75050   0.01267  Uiso   1.00
C173   C     0.91430   0.97680   0.74080   0.01267  Uiso   1.00
C174   C     0.02590   0.04980   0.79140   0.01267  Uiso   1.00
C175   C     0.40780   0.58940   0.51700   0.01267  Uiso   1.00
C176   C     0.40940   0.65010   0.53990   0.01267  Uiso   1.00
C177   C     0.48750   0.69040   0.54670   0.01267  Uiso   1.00
C178   C     0.48830   0.74660   0.57040   0.01267  Uiso   1.00
C179   C     0.41000   0.76050   0.58760   0.01267  Uiso   1.00
C180   C     0.33120   0.72190   0.58370   0.01267  Uiso   1.00
C181   C     0.33340   0.66620   0.55850   0.01267  Uiso   1.00
C182   C     0.42450   0.82440   0.66530   0.01267  Uiso   1.00
C183   C     0.40070   0.87050   0.59060   0.01267  Uiso   1.00
C184   C     0.40510   0.91120   0.63270   0.01267  Uiso   1.00
C185   C     0.43210   0.90940   0.72870   0.01267  Uiso   1.00
C186   C     0.51450   0.93590   0.74670   0.01267  Uiso   1.00
C187   C     0.52530   0.95730   0.79900   0.01267  Uiso   1.00
C188   C     0.45360   0.95220   0.83320   0.01267  Uiso   1.00
C189   C     0.37110   0.92570   0.81510   0.01267  Uiso   1.00
C190   C     0.36040   0.90420   0.76290   0.01267  Uiso   1.00
C191   C     0.46850   0.97380   0.89260   0.01267  Uiso   1.00
C192   C     0.57790   0.78960   0.57750   0.01267  Uiso   1.00
C193   C     0.62430   0.79870   0.52480   0.01267  Uiso   1.00
C194   C     0.63170   0.76380   0.62350   0.01267  Uiso   1.00
C195   C     0.24920   0.73690   0.60840   0.01267  Uiso   1.00
C196   C     0.17780   0.73500   0.57050   0.01267  Uiso   1.00
C197   C     0.22480   0.69630   0.65980   0.01267  Uiso   1.00
C198   C     0.59380   0.93830   0.70940   0.01267  Uiso   1.00
C199   C     0.63650   0.00420   0.69800   0.01267  Uiso   1.00
C200   C     0.65990   0.89930   0.73420   0.01267  Uiso   1.00
C201   C     0.26360   0.87540   0.74600   0.01267  Uiso   1.00
C202   C     0.24520   0.81700   0.77490   0.01267  Uiso   1.00
C203   C     0.20420   0.92070   0.75290   0.01267  Uiso   1.00
C204   C     0.74970   0.13610   0.03570   0.01267  Uiso   1.00
C205   C     0.81360   0.18260   0.06340   0.01267  Uiso   1.00
C206   C     0.88900   0.16490   0.07630   0.01267  Uiso   1.00
C207   C     0.95570   0.20540   0.10150   0.01267  Uiso   1.00
C208   C     0.94030   0.26200   0.11290   0.01267  Uiso   1.00
C209   C     0.86500   0.28250   0.10220   0.01267  Uiso   1.00
C210   C     0.79650   0.24080   0.07650   0.01267  Uiso   1.00
C211   C     0.02950   0.31200   0.18640   0.01267  Uiso   1.00
C212   C     0.06150   0.35130   0.10360   0.01267  Uiso   1.00
C213   C     0.12060   0.38070   0.13960   0.01267  Uiso   1.00
C214   C     0.15100   0.37350   0.23800   0.01267  Uiso   1.00
C215   C     0.21700   0.34070   0.25340   0.01267  Uiso   1.00
C216   C     0.25720   0.36140   0.30330   0.01267  Uiso   1.00
C217   C     0.22980   0.40830   0.33260   0.01267  Uiso   1.00
C218   C     0.16350   0.43910   0.31510   0.01267  Uiso   1.00
C219   C     0.12060   0.42210   0.26720   0.01267  Uiso   1.00
C220   C     0.27860   0.41970   0.38700   0.01267  Uiso   1.00
C221   C     0.04150   0.19110   0.11430   0.01267  Uiso   1.00
C222   C     0.03380   0.13680   0.15640   0.01267  Uiso   1.00
C223   C     0.09430   0.17460   0.06560   0.01267  Uiso   1.00
C224   C     0.83620   0.34390   0.11770   0.01267  Uiso   1.00
C225   C     0.79100   0.34420   0.17300   0.01267  Uiso   1.00
C226   C     0.78100   0.37080   0.07570   0.01267  Uiso   1.00
C227   C     0.24130   0.29240   0.21560   0.01267  Uiso   1.00
C228   C     0.34020   0.30690   0.20160   0.01267  Uiso   1.00
C229   C     0.22270   0.23000   0.24870   0.01267  Uiso   1.00
C230   C     0.04850   0.45840   0.25050   0.01267  Uiso   1.00
C231   C     0.08570   0.52320   0.24080   0.01267  Uiso   1.00
C232   C     0.97410   0.45020   0.29140   0.01267  Uiso   1.00
N1     N     0.41190   0.31660   0.88650   0.01267  Uiso   1.00
N2     N     0.42230   0.38120   0.82220   0.01267  Uiso   1.00
N3     N     0.01300   0.81120   0.36540   0.01267  Uiso   1.00
N4     N     0.09770   0.86030   0.31140   0.01267  Uiso   1.00
N5     N     0.58810   0.18340   0.38650   0.01267  Uiso   1.00
N6     N     0.57770   0.11880   0.32220   0.01267  Uiso   1.00
N7     N     0.98700   0.68880   0.86540   0.01267  Uiso   1.00
N8     N     0.90230   0.63970   0.81140   0.01267  Uiso   1.00
N9     N     0.58810   0.68340   0.11350   0.01267  Uiso   1.00
N10    N     0.57770   0.61880   0.17780   0.01267  Uiso   1.00
N11    N     0.98700   0.18880   0.63460   0.01267  Uiso   1.00
N12    N     0.90230   0.13970   0.68860   0.01267  Uiso   1.00
N13    N     0.41190   0.81660   0.61350   0.01267  Uiso   1.00
N14    N     0.42230   0.88120   0.67780   0.01267  Uiso   1.00
N15    N     0.01300   0.31120   0.13460   0.01267  Uiso   1.00
N16    N     0.09770   0.36030   0.18860   0.01267  Uiso   1.00
Cl1    Cl    0.95800   0.70640   0.18430   0.01267  Uiso   1.00
Cl2    Cl    0.04200   0.79360   0.68430   0.01267  Uiso   1.00
Cl3    Cl    0.04200   0.29360   0.81570   0.01267  Uiso   1.00
Cl4    Cl    0.95800   0.20640   0.31570   0.01267  Uiso   1.00
O1     O     0.33330   0.05850   0.99500   0.01267  Uiso   1.00
O2     O     0.47640   0.07010   0.99030   0.01267  Uiso   1.00
O3     O     0.40160   0.46540   0.57780   0.01267  Uiso   1.00
O4     O     0.54750   0.49690   0.59600   0.01267  Uiso   1.00
O5     O     0.67620   0.64950   0.47660   0.01267  Uiso   1.00
O6     O     0.76860   0.58520   0.47490   0.01267  Uiso   1.00
O7     O     0.26140   0.96700   0.09060   0.01267  Uiso   1.00
O8     O     0.32970   0.88750   0.09680   0.01267  Uiso   1.00
O9     O     0.66670   0.44150   0.49500   0.01267  Uiso   1.00
O10    O     0.52360   0.42990   0.49030   0.01267  Uiso   1.00
O11    O     0.59840   0.03460   0.07780   0.01267  Uiso   1.00
O12    O     0.45250   0.00310   0.09600   0.01267  Uiso   1.00
O13    O     0.32380   0.85050   0.97660   0.01267  Uiso   1.00
O14    O     0.23140   0.91480   0.97490   0.01267  Uiso   1.00
O15    O     0.73860   0.53300   0.59060   0.01267  Uiso   1.00
O16    O     0.67030   0.61250   0.59680   0.01267  Uiso   1.00
O17    O     0.66670   0.94150   0.00500   0.01267  Uiso   1.00
O18    O     0.52360   0.92990   0.00970   0.01267  Uiso   1.00
O19    O     0.59840   0.53460   0.42220   0.01267  Uiso   1.00
O20    O     0.45250   0.50310   0.40400   0.01267  Uiso   1.00
O21    O     0.32380   0.35050   0.52340   0.01267  Uiso   1.00
O22    O     0.23140   0.41480   0.52510   0.01267  Uiso   1.00
O23    O     0.73860   0.03300   0.90940   0.01267  Uiso   1.00
O24    O     0.67030   0.11250   0.90320   0.01267  Uiso   1.00
O25    O     0.33330   0.55850   0.50500   0.01267  Uiso   1.00
O26    O     0.47640   0.57010   0.50970   0.01267  Uiso   1.00
O27    O     0.40160   0.96540   0.92220   0.01267  Uiso   1.00
O28    O     0.54750   0.99690   0.90400   0.01267  Uiso   1.00
O29    O     0.67620   0.14950   0.02340   0.01267  Uiso   1.00
O30    O     0.76860   0.08520   0.02510   0.01267  Uiso   1.00
O31    O     0.26140   0.46700   0.40940   0.01267  Uiso   1.00
O32    O     0.32970   0.38750   0.40320   0.01267  Uiso   1.00
