data_MARJAQ_clean
_audit_creation_date              2014-07-02
_audit_creation_method            'Materials Studio'
_symmetry_space_group_name_H-M    'P1'
_symmetry_Int_Tables_number       1
_symmetry_cell_setting            triclinic
loop_
_symmetry_equiv_pos_as_xyz
  x,y,z
_cell_length_a                    10.0749
_cell_length_b                    17.4941
_cell_length_c                    32.3930
_cell_angle_alpha                 90.0000
_cell_angle_beta                  90.0000
_cell_angle_gamma                 90.0000
loop_
_atom_site_label
_atom_site_type_symbol
_atom_site_fract_x
_atom_site_fract_y
_atom_site_fract_z
_atom_site_U_iso_or_equiv
_atom_site_adp_type
_atom_site_occupancy
Ga1    Ga    0.93941   0.57404   0.07945   0.01267  Uiso   1.00
Ga2    Ga    0.96462   0.51392   0.97440   0.01267  Uiso   1.00
Ga3    Ga    0.12445   0.84014   0.00750   0.01267  Uiso   1.00
Ga4    Ga    0.40586   0.65693   0.49390   0.01267  Uiso   1.00
Ga5    Ga    0.58201   0.91980   0.41875   0.01267  Uiso   1.00
Ga6    Ga    0.55859   0.98391   0.52439   0.01267  Uiso   1.00
Ga7    Ga    0.40115   0.65886   0.33234   0.01267  Uiso   1.00
Ga8    Ga    0.12577   0.84374   0.17809   0.01267  Uiso   1.00
Ga9    Ga    0.07907   0.69969   0.24113   0.01267  Uiso   1.00
Ga10   Ga    0.43941   0.42596   0.92055   0.01267  Uiso   1.00
Ga11   Ga    0.46462   0.48608   0.02560   0.01267  Uiso   1.00
Ga12   Ga    0.62445   0.15986   0.99250   0.01267  Uiso   1.00
Ga13   Ga    0.90586   0.34307   0.50610   0.01267  Uiso   1.00
Ga14   Ga    0.08201   0.08020   0.58125   0.01267  Uiso   1.00
Ga15   Ga    0.05859   0.01609   0.47561   0.01267  Uiso   1.00
Ga16   Ga    0.90115   0.34114   0.66766   0.01267  Uiso   1.00
Ga17   Ga    0.62577   0.15626   0.82191   0.01267  Uiso   1.00
Ga18   Ga    0.57907   0.30031   0.75887   0.01267  Uiso   1.00
Ga19   Ga    0.93941   0.07404   0.92055   0.01267  Uiso   1.00
Ga20   Ga    0.96462   0.01392   0.02560   0.01267  Uiso   1.00
Ga21   Ga    0.12445   0.34014   0.99250   0.01267  Uiso   1.00
Ga22   Ga    0.40586   0.15693   0.50610   0.01267  Uiso   1.00
Ga23   Ga    0.58201   0.41980   0.58125   0.01267  Uiso   1.00
Ga24   Ga    0.55859   0.48391   0.47561   0.01267  Uiso   1.00
Ga25   Ga    0.40115   0.15886   0.66766   0.01267  Uiso   1.00
Ga26   Ga    0.12577   0.34374   0.82191   0.01267  Uiso   1.00
Ga27   Ga    0.07907   0.19969   0.75887   0.01267  Uiso   1.00
Ga28   Ga    0.43941   0.92596   0.07945   0.01267  Uiso   1.00
Ga29   Ga    0.46462   0.98608   0.97440   0.01267  Uiso   1.00
Ga30   Ga    0.62445   0.65986   0.00750   0.01267  Uiso   1.00
Ga31   Ga    0.90586   0.84307   0.49390   0.01267  Uiso   1.00
Ga32   Ga    0.08201   0.58020   0.41875   0.01267  Uiso   1.00
Ga33   Ga    0.05859   0.51609   0.52439   0.01267  Uiso   1.00
Ga34   Ga    0.90115   0.84114   0.33234   0.01267  Uiso   1.00
Ga35   Ga    0.62577   0.65626   0.17809   0.01267  Uiso   1.00
Ga36   Ga    0.57907   0.80031   0.24113   0.01267  Uiso   1.00
P1     P     0.93950   0.68690   0.00363   0.01267  Uiso   1.00
P2     P     0.16560   0.47860   0.04666   0.01267  Uiso   1.00
P3     P     0.14560   0.93210   0.09293   0.01267  Uiso   1.00
P4     P     0.35870   0.01860   0.45188   0.01267  Uiso   1.00
P5     P     0.59110   0.81140   0.49631   0.01267  Uiso   1.00
P6     P     0.37420   0.56300   0.40943   0.01267  Uiso   1.00
P7     P     0.38540   0.64975   0.24133   0.01267  Uiso   1.00
P8     P     0.95270   0.68150   0.15945   0.01267  Uiso   1.00
P9     P     0.08850   0.69020   0.33726   0.01267  Uiso   1.00
P10    P     0.43950   0.31310   0.99637   0.01267  Uiso   1.00
P11    P     0.66560   0.52140   0.95334   0.01267  Uiso   1.00
P12    P     0.64560   0.06790   0.90707   0.01267  Uiso   1.00
P13    P     0.85870   0.98140   0.54812   0.01267  Uiso   1.00
P14    P     0.09110   0.18860   0.50369   0.01267  Uiso   1.00
P15    P     0.87420   0.43700   0.59057   0.01267  Uiso   1.00
P16    P     0.88540   0.35025   0.75867   0.01267  Uiso   1.00
P17    P     0.45270   0.31850   0.84055   0.01267  Uiso   1.00
P18    P     0.58850   0.30980   0.66274   0.01267  Uiso   1.00
P19    P     0.93950   0.18690   0.99637   0.01267  Uiso   1.00
P20    P     0.16560   0.97860   0.95334   0.01267  Uiso   1.00
P21    P     0.14560   0.43210   0.90707   0.01267  Uiso   1.00
P22    P     0.35870   0.51860   0.54812   0.01267  Uiso   1.00
P23    P     0.59110   0.31140   0.50369   0.01267  Uiso   1.00
P24    P     0.37420   0.06300   0.59057   0.01267  Uiso   1.00
P25    P     0.38540   0.14975   0.75867   0.01267  Uiso   1.00
P26    P     0.95270   0.18150   0.84055   0.01267  Uiso   1.00
P27    P     0.08850   0.19020   0.66274   0.01267  Uiso   1.00
P28    P     0.43950   0.81310   0.00363   0.01267  Uiso   1.00
P29    P     0.66560   0.02140   0.04666   0.01267  Uiso   1.00
P30    P     0.64560   0.56790   0.09293   0.01267  Uiso   1.00
P31    P     0.85870   0.48140   0.45188   0.01267  Uiso   1.00
P32    P     0.09110   0.68860   0.49631   0.01267  Uiso   1.00
P33    P     0.87420   0.93700   0.40943   0.01267  Uiso   1.00
P34    P     0.88540   0.85025   0.24133   0.01267  Uiso   1.00
P35    P     0.45270   0.81850   0.15945   0.01267  Uiso   1.00
P36    P     0.58850   0.80980   0.33726   0.01267  Uiso   1.00
O1     O     0.36180   0.63290   0.43860   0.01267  Uiso   1.00
O2     O     0.16570   0.86570   0.06230   0.01267  Uiso   1.00
O3     O     0.55940   0.87230   0.52760   0.01267  Uiso   1.00
O4     O     0.24020   0.63980   0.22880   0.01267  Uiso   1.00
O5     O     0.39750   0.97700   0.49180   0.01267  Uiso   1.00
O6     O     0.17350   0.79140   0.22980   0.01267  Uiso   1.00
O7     O     0.96280   0.62430   0.97050   0.01267  Uiso   1.00
O8     O     0.12470   0.51950   0.00700   0.01267  Uiso   1.00
O9     O     0.41500   0.73520   0.24890   0.01267  Uiso   1.00
O10    O     0.03110   0.75590   0.15650   0.01267  Uiso   1.00
O11    O     0.50470   0.74130   0.50760   0.01267  Uiso   1.00
O12    O     0.05890   0.65840   0.29440   0.01267  Uiso   1.00
O13    O     0.02940   0.75330   0.99300   0.01267  Uiso   1.00
O14    O     0.07090   0.99930   0.07460   0.01267  Uiso   1.00
O15    O     0.97380   0.64520   0.20280   0.01267  Uiso   1.00
O16    O     0.44380   0.49330   0.42730   0.01267  Uiso   1.00
O17    O     0.07730   0.50440   0.08310   0.01267  Uiso   1.00
O18    O     0.44050   0.98800   0.41430   0.01267  Uiso   1.00
O19    O     0.15200   0.39180   0.04180   0.01267  Uiso   1.00
O20    O     0.97510   0.66070   0.04800   0.01267  Uiso   1.00
O21    O     0.55120   0.83370   0.45120   0.01267  Uiso   1.00
O22    O     0.38380   0.10500   0.45610   0.01267  Uiso   1.00
O23    O     0.24110   0.70220   0.34460   0.01267  Uiso   1.00
O24    O     0.30760   0.49990   0.05860   0.01267  Uiso   1.00
O25    O     0.79440   0.71610   0.00290   0.01267  Uiso   1.00
O26    O     0.73830   0.78770   0.49760   0.01267  Uiso   1.00
O27    O     0.80390   0.69470   0.15320   0.01267  Uiso   1.00
O28    O     0.23370   0.54240   0.39420   0.01267  Uiso   1.00
O29    O     0.21150   0.00380   0.44140   0.01267  Uiso   1.00
O30    O     0.45710   0.58820   0.37070   0.01267  Uiso   1.00
O31    O     0.28790   0.95890   0.10710   0.01267  Uiso   1.00
O32    O     0.07450   0.90380   0.13180   0.01267  Uiso   1.00
O33    O     0.00790   0.62480   0.12780   0.01267  Uiso   1.00
O34    O     0.02710   0.63640   0.36910   0.01267  Uiso   1.00
O35    O     0.47370   0.61280   0.20810   0.01267  Uiso   1.00
O36    O     0.03240   0.77160   0.34160   0.01267  Uiso   1.00
O37    O     0.40900   0.60770   0.28340   0.01267  Uiso   1.00
O38    O     0.86180   0.36710   0.56140   0.01267  Uiso   1.00
O39    O     0.66570   0.13430   0.93770   0.01267  Uiso   1.00
O40    O     0.05940   0.12770   0.47240   0.01267  Uiso   1.00
O41    O     0.74020   0.36020   0.77120   0.01267  Uiso   1.00
O42    O     0.89750   0.02300   0.50820   0.01267  Uiso   1.00
O43    O     0.67350   0.20860   0.77020   0.01267  Uiso   1.00
O44    O     0.46280   0.37570   0.02950   0.01267  Uiso   1.00
O45    O     0.62470   0.48050   0.99300   0.01267  Uiso   1.00
O46    O     0.91500   0.26480   0.75110   0.01267  Uiso   1.00
O47    O     0.53110   0.24410   0.84350   0.01267  Uiso   1.00
O48    O     0.00470   0.25870   0.49240   0.01267  Uiso   1.00
O49    O     0.55890   0.34160   0.70560   0.01267  Uiso   1.00
O50    O     0.52940   0.24670   0.00700   0.01267  Uiso   1.00
O51    O     0.57090   0.00070   0.92540   0.01267  Uiso   1.00
O52    O     0.47380   0.35480   0.79720   0.01267  Uiso   1.00
O53    O     0.94380   0.50670   0.57270   0.01267  Uiso   1.00
O54    O     0.57730   0.49560   0.91690   0.01267  Uiso   1.00
O55    O     0.94050   0.01200   0.58570   0.01267  Uiso   1.00
O56    O     0.65200   0.60820   0.95820   0.01267  Uiso   1.00
O57    O     0.47510   0.33930   0.95200   0.01267  Uiso   1.00
O58    O     0.05120   0.16630   0.54880   0.01267  Uiso   1.00
O59    O     0.88380   0.89500   0.54390   0.01267  Uiso   1.00
O60    O     0.74110   0.29780   0.65540   0.01267  Uiso   1.00
O61    O     0.80760   0.50010   0.94140   0.01267  Uiso   1.00
O62    O     0.29440   0.28390   0.99710   0.01267  Uiso   1.00
O63    O     0.23830   0.21230   0.50240   0.01267  Uiso   1.00
O64    O     0.30390   0.30530   0.84680   0.01267  Uiso   1.00
O65    O     0.73370   0.45760   0.60580   0.01267  Uiso   1.00
O66    O     0.71150   0.99620   0.55860   0.01267  Uiso   1.00
O67    O     0.95710   0.41180   0.62930   0.01267  Uiso   1.00
O68    O     0.78790   0.04110   0.89290   0.01267  Uiso   1.00
O69    O     0.57450   0.09620   0.86820   0.01267  Uiso   1.00
O70    O     0.50790   0.37520   0.87220   0.01267  Uiso   1.00
O71    O     0.52710   0.36360   0.63090   0.01267  Uiso   1.00
O72    O     0.97370   0.38720   0.79190   0.01267  Uiso   1.00
O73    O     0.53240   0.22840   0.65840   0.01267  Uiso   1.00
O74    O     0.90900   0.39230   0.71660   0.01267  Uiso   1.00
O75    O     0.36180   0.13290   0.56140   0.01267  Uiso   1.00
O76    O     0.16570   0.36570   0.93770   0.01267  Uiso   1.00
O77    O     0.55940   0.37230   0.47240   0.01267  Uiso   1.00
O78    O     0.24020   0.13980   0.77120   0.01267  Uiso   1.00
O79    O     0.39750   0.47700   0.50820   0.01267  Uiso   1.00
O80    O     0.17350   0.29140   0.77020   0.01267  Uiso   1.00
O81    O     0.96280   0.12430   0.02950   0.01267  Uiso   1.00
O82    O     0.12470   0.01950   0.99300   0.01267  Uiso   1.00
O83    O     0.41500   0.23520   0.75110   0.01267  Uiso   1.00
O84    O     0.03110   0.25590   0.84350   0.01267  Uiso   1.00
O85    O     0.50470   0.24130   0.49240   0.01267  Uiso   1.00
O86    O     0.05890   0.15840   0.70560   0.01267  Uiso   1.00
O87    O     0.02940   0.25330   0.00700   0.01267  Uiso   1.00
O88    O     0.07090   0.49930   0.92540   0.01267  Uiso   1.00
O89    O     0.97380   0.14520   0.79720   0.01267  Uiso   1.00
O90    O     0.44380   0.99330   0.57270   0.01267  Uiso   1.00
O91    O     0.07730   0.00440   0.91690   0.01267  Uiso   1.00
O92    O     0.44050   0.48800   0.58570   0.01267  Uiso   1.00
O93    O     0.15200   0.89180   0.95820   0.01267  Uiso   1.00
O94    O     0.97510   0.16070   0.95200   0.01267  Uiso   1.00
O95    O     0.55120   0.33370   0.54880   0.01267  Uiso   1.00
O96    O     0.38380   0.60500   0.54390   0.01267  Uiso   1.00
O97    O     0.24110   0.20220   0.65540   0.01267  Uiso   1.00
O98    O     0.30760   0.99990   0.94140   0.01267  Uiso   1.00
O99    O     0.79440   0.21610   0.99710   0.01267  Uiso   1.00
O100   O     0.73830   0.28770   0.50240   0.01267  Uiso   1.00
O101   O     0.80390   0.19470   0.84680   0.01267  Uiso   1.00
O102   O     0.23370   0.04240   0.60580   0.01267  Uiso   1.00
O103   O     0.21150   0.50380   0.55860   0.01267  Uiso   1.00
O104   O     0.45710   0.08820   0.62930   0.01267  Uiso   1.00
O105   O     0.28790   0.45890   0.89290   0.01267  Uiso   1.00
O106   O     0.07450   0.40380   0.86820   0.01267  Uiso   1.00
O107   O     0.00790   0.12480   0.87220   0.01267  Uiso   1.00
O108   O     0.02710   0.13640   0.63090   0.01267  Uiso   1.00
O109   O     0.47370   0.11280   0.79190   0.01267  Uiso   1.00
O110   O     0.03240   0.27160   0.65840   0.01267  Uiso   1.00
O111   O     0.40900   0.10770   0.71660   0.01267  Uiso   1.00
O112   O     0.86180   0.86710   0.43860   0.01267  Uiso   1.00
O113   O     0.66570   0.63430   0.06230   0.01267  Uiso   1.00
O114   O     0.05940   0.62770   0.52760   0.01267  Uiso   1.00
O115   O     0.74020   0.86020   0.22880   0.01267  Uiso   1.00
O116   O     0.89750   0.52300   0.49180   0.01267  Uiso   1.00
O117   O     0.67350   0.70860   0.22980   0.01267  Uiso   1.00
O118   O     0.46280   0.87570   0.97050   0.01267  Uiso   1.00
O119   O     0.62470   0.98050   0.00700   0.01267  Uiso   1.00
O120   O     0.91500   0.76480   0.24890   0.01267  Uiso   1.00
O121   O     0.53110   0.74410   0.15650   0.01267  Uiso   1.00
O122   O     0.00470   0.75870   0.50760   0.01267  Uiso   1.00
O123   O     0.55890   0.84160   0.29440   0.01267  Uiso   1.00
O124   O     0.52940   0.74670   0.99300   0.01267  Uiso   1.00
O125   O     0.57090   0.50070   0.07460   0.01267  Uiso   1.00
O126   O     0.47380   0.85480   0.20280   0.01267  Uiso   1.00
O127   O     0.94380   0.00670   0.42730   0.01267  Uiso   1.00
O128   O     0.57730   0.99560   0.08310   0.01267  Uiso   1.00
O129   O     0.94050   0.51200   0.41430   0.01267  Uiso   1.00
O130   O     0.65200   0.10820   0.04180   0.01267  Uiso   1.00
O131   O     0.47510   0.83930   0.04800   0.01267  Uiso   1.00
O132   O     0.05120   0.66630   0.45120   0.01267  Uiso   1.00
O133   O     0.88380   0.39500   0.45610   0.01267  Uiso   1.00
O134   O     0.74110   0.79780   0.34460   0.01267  Uiso   1.00
O135   O     0.80760   0.00010   0.05860   0.01267  Uiso   1.00
O136   O     0.29440   0.78390   0.00290   0.01267  Uiso   1.00
O137   O     0.23830   0.71230   0.49760   0.01267  Uiso   1.00
O138   O     0.30390   0.80530   0.15320   0.01267  Uiso   1.00
O139   O     0.73370   0.95760   0.39420   0.01267  Uiso   1.00
O140   O     0.71150   0.49620   0.44140   0.01267  Uiso   1.00
O141   O     0.95710   0.91180   0.37070   0.01267  Uiso   1.00
O142   O     0.78790   0.54110   0.10710   0.01267  Uiso   1.00
O143   O     0.57450   0.59620   0.13180   0.01267  Uiso   1.00
O144   O     0.50790   0.87520   0.12780   0.01267  Uiso   1.00
O145   O     0.52710   0.86360   0.36910   0.01267  Uiso   1.00
O146   O     0.97370   0.88720   0.20810   0.01267  Uiso   1.00
O147   O     0.53240   0.72840   0.34160   0.01267  Uiso   1.00
O148   O     0.90900   0.89230   0.28340   0.01267  Uiso   1.00
F1     F     0.95840   0.39970   0.98410   0.01267  Uiso   1.00
F2     F     0.65060   0.97420   0.47050   0.01267  Uiso   1.00
F3     F     0.86870   0.52240   0.02830   0.01267  Uiso   1.00
F4     F     0.57100   0.59600   0.48480   0.01267  Uiso   1.00
F5     F     0.45840   0.60030   0.01590   0.01267  Uiso   1.00
F6     F     0.15060   0.02580   0.52950   0.01267  Uiso   1.00
F7     F     0.36870   0.47760   0.97170   0.01267  Uiso   1.00
F8     F     0.07100   0.40400   0.51520   0.01267  Uiso   1.00
F9     F     0.95840   0.89970   0.01590   0.01267  Uiso   1.00
F10    F     0.65060   0.47420   0.52950   0.01267  Uiso   1.00
F11    F     0.86870   0.02240   0.97170   0.01267  Uiso   1.00
F12    F     0.57100   0.09600   0.51520   0.01267  Uiso   1.00
F13    F     0.45840   0.10030   0.98410   0.01267  Uiso   1.00
F14    F     0.15060   0.52580   0.47050   0.01267  Uiso   1.00
F15    F     0.36870   0.97760   0.02830   0.01267  Uiso   1.00
F16    F     0.07100   0.90400   0.48480   0.01267  Uiso   1.00
