data_MATVAF_clean
_audit_creation_date              2014-07-02
_audit_creation_method            'Materials Studio'
_symmetry_space_group_name_H-M    'P1'
_symmetry_Int_Tables_number       1
_symmetry_cell_setting            triclinic
loop_
_symmetry_equiv_pos_as_xyz
  x,y,z
_cell_length_a                    12.9938
_cell_length_b                    13.0908
_cell_length_c                    22.3180
_cell_angle_alpha                 90.0000
_cell_angle_beta                  90.0000
_cell_angle_gamma                 102.5820
loop_
_atom_site_label
_atom_site_type_symbol
_atom_site_fract_x
_atom_site_fract_y
_atom_site_fract_z
_atom_site_U_iso_or_equiv
_atom_site_adp_type
_atom_site_occupancy
Zn1    Zn    0.22696   0.12932   0.82632   0.01267  Uiso   1.00
Zn2    Zn    0.25449   0.15603   0.95685   0.01267  Uiso   1.00
H1     H     0.11570   0.98340   0.72910   0.01267  Uiso   1.00
H2     H     0.11190   0.97350   0.62680   0.01267  Uiso   1.00
H3     H     0.30570   0.25940   0.61950   0.01267  Uiso   1.00
H4     H     0.30890   0.25870   0.72390   0.01267  Uiso   1.00
H5     H     0.46670   0.11520   0.44740   0.01267  Uiso   1.00
H6     H     0.47390   0.12860   0.34190   0.01267  Uiso   1.00
H7     H     0.97820   0.13960   0.33550   0.01267  Uiso   1.00
H8     H     0.97140   0.13020   0.44110   0.01267  Uiso   1.00
H9     H     0.30730   0.29950   0.16620   0.01267  Uiso   1.00
H10    H     0.31760   0.30520   0.06070   0.01267  Uiso   1.00
H11    H     0.17470   0.00590   0.05160   0.01267  Uiso   1.00
H12    H     0.15940   0.99570   0.15710   0.01267  Uiso   1.00
H13    H     0.23870   0.44760   0.78570   0.01267  Uiso   1.00
H14    H     0.23590   0.62420   0.77190   0.01267  Uiso   1.00
H15    H     0.26640   0.48890   0.96400   0.01267  Uiso   1.00
H16    H     0.23110   0.79870   0.81730   0.01267  Uiso   1.00
H17    H     0.25830   0.83640   0.99700   0.01267  Uiso   1.00
H18    H     0.26060   0.66190   0.00870   0.01267  Uiso   1.00
H19    H     0.89960   0.12720   0.81900   0.01267  Uiso   1.00
H20    H     0.75550   0.15320   0.01040   0.01267  Uiso   1.00
H21    H     0.92950   0.14020   0.99960   0.01267  Uiso   1.00
H22    H     0.72900   0.14120   0.77220   0.01267  Uiso   1.00
H23    H     0.55240   0.15270   0.78270   0.01267  Uiso   1.00
H24    H     0.58400   0.16400   0.96380   0.01267  Uiso   1.00
C1     C     0.15570   0.03970   0.70646   0.01267  Uiso   1.00
C2     C     0.15290   0.03340   0.64613   0.01267  Uiso   1.00
C3     C     0.21000   0.11470   0.61301   0.01267  Uiso   1.00
C4     C     0.26740   0.20120   0.64140   0.01267  Uiso   1.00
C5     C     0.26740   0.20020   0.70353   0.01267  Uiso   1.00
C6     C     0.11910   0.11980   0.51878   0.01267  Uiso   1.00
C7     C     0.12530   0.12670   0.45273   0.01267  Uiso   1.00
C8     C     0.22180   0.12780   0.42299   0.01267  Uiso   1.00
C9     C     0.31260   0.12240   0.45467   0.01267  Uiso   1.00
C10    C     0.31090   0.11590   0.52129   0.01267  Uiso   1.00
C11    C     0.40570   0.12090   0.42531   0.01267  Uiso   1.00
C12    C     0.40950   0.12800   0.36224   0.01267  Uiso   1.00
C13    C     0.32130   0.13380   0.33000   0.01267  Uiso   1.00
C14    C     0.22400   0.13290   0.35931   0.01267  Uiso   1.00
C15    C     0.13200   0.13780   0.32859   0.01267  Uiso   1.00
C16    C     0.03990   0.13660   0.35770   0.01267  Uiso   1.00
C17    C     0.03580   0.13100   0.42078   0.01267  Uiso   1.00
C18    C     0.13460   0.14380   0.26174   0.01267  Uiso   1.00
C19    C     0.32480   0.13620   0.26510   0.01267  Uiso   1.00
C20    C     0.23620   0.14610   0.16988   0.01267  Uiso   1.00
C21    C     0.28090   0.23850   0.14305   0.01267  Uiso   1.00
C22    C     0.28700   0.24140   0.08031   0.01267  Uiso   1.00
C23    C     0.20290   0.06600   0.07514   0.01267  Uiso   1.00
C24    C     0.19370   0.05880   0.13798   0.01267  Uiso   1.00
C25    C     0.25450   0.34010   0.88370   0.01267  Uiso   1.00
C26    C     0.25370   0.45490   0.87719   0.01267  Uiso   1.00
C27    C     0.24350   0.49310   0.81930   0.01267  Uiso   1.00
C28    C     0.24030   0.59730   0.81110   0.01267  Uiso   1.00
C29    C     0.24390   0.66420   0.86230   0.01267  Uiso   1.00
C30    C     0.25420   0.62400   0.92010   0.01267  Uiso   1.00
C31    C     0.25910   0.51710   0.92542   0.01267  Uiso   1.00
C32    C     0.23790   0.77090   0.85604   0.01267  Uiso   1.00
C33    C     0.24170   0.83300   0.90461   0.01267  Uiso   1.00
C34    C     0.25310   0.79210   0.96290   0.01267  Uiso   1.00
C35    C     0.25660   0.68940   0.96959   0.01267  Uiso   1.00
C36    C     0.23550   0.94510   0.89740   0.01267  Uiso   1.00
C37    C     0.04240   0.12580   0.90145   0.01267  Uiso   1.00
C38    C     0.92850   0.13130   0.90786   0.01267  Uiso   1.00
C39    C     0.86980   0.13260   0.85741   0.01267  Uiso   1.00
C40    C     0.76350   0.14200   0.86296   0.01267  Uiso   1.00
C41    C     0.72180   0.14870   0.92102   0.01267  Uiso   1.00
C42    C     0.78410   0.14810   0.97158   0.01267  Uiso   1.00
C43    C     0.88650   0.14000   0.96520   0.01267  Uiso   1.00
C44    C     0.69980   0.14450   0.81098   0.01267  Uiso   1.00
C45    C     0.59510   0.15170   0.81716   0.01267  Uiso   1.00
C46    C     0.55300   0.15750   0.87463   0.01267  Uiso   1.00
C47    C     0.61390   0.15770   0.92546   0.01267  Uiso   1.00
C48    C     0.43910   0.16280   0.88202   0.01267  Uiso   1.00
N1     N     0.21320   0.12300   0.73587   0.01267  Uiso   1.00
N2     N     0.21300   0.11020   0.54783   0.01267  Uiso   1.00
N3     N     0.23080   0.14270   0.23514   0.01267  Uiso   1.00
N4     N     0.24970   0.15440   0.04750   0.01267  Uiso   1.00
O1     O     0.03970   0.11940   0.54666   0.01267  Uiso   1.00
O2     O     0.38620   0.10970   0.55022   0.01267  Uiso   1.00
O3     O     0.05740   0.14850   0.23151   0.01267  Uiso   1.00
O4     O     0.40410   0.13610   0.23545   0.01267  Uiso   1.00
O5     O     0.40760   0.17310   0.93303   0.01267  Uiso   1.00
O6     O     0.38489   0.15230   0.83463   0.01267  Uiso   1.00
O7     O     0.07500   0.11380   0.84945   0.01267  Uiso   1.00
O8     O     0.09586   0.13230   0.94928   0.01267  Uiso   1.00
O9     O     0.24210   0.99790   0.94436   0.01267  Uiso   1.00
O10    O     0.22140   0.97690   0.84579   0.01267  Uiso   1.00
O11    O     0.26230   0.30690   0.93590   0.01267  Uiso   1.00
O12    O     0.24330   0.28740   0.83769   0.01267  Uiso   1.00
Zn3    Zn    0.77304   0.87068   0.32632   0.01267  Uiso   1.00
Zn4    Zn    0.74551   0.84397   0.45685   0.01267  Uiso   1.00
H25    H     0.88430   0.01660   0.22910   0.01267  Uiso   1.00
H26    H     0.88810   0.02650   0.12680   0.01267  Uiso   1.00
H27    H     0.69430   0.74060   0.11950   0.01267  Uiso   1.00
H28    H     0.69110   0.74130   0.22390   0.01267  Uiso   1.00
H29    H     0.53330   0.88480   0.94740   0.01267  Uiso   1.00
H30    H     0.52610   0.87140   0.84190   0.01267  Uiso   1.00
H31    H     0.02180   0.86040   0.83550   0.01267  Uiso   1.00
H32    H     0.02860   0.86980   0.94110   0.01267  Uiso   1.00
H33    H     0.69270   0.70050   0.66620   0.01267  Uiso   1.00
H34    H     0.68240   0.69480   0.56070   0.01267  Uiso   1.00
H35    H     0.82530   0.99410   0.55160   0.01267  Uiso   1.00
H36    H     0.84060   0.00430   0.65710   0.01267  Uiso   1.00
H37    H     0.76130   0.55240   0.28570   0.01267  Uiso   1.00
H38    H     0.76410   0.37580   0.27190   0.01267  Uiso   1.00
H39    H     0.73360   0.51110   0.46400   0.01267  Uiso   1.00
H40    H     0.76890   0.20130   0.31730   0.01267  Uiso   1.00
H41    H     0.74170   0.16360   0.49700   0.01267  Uiso   1.00
H42    H     0.73940   0.33810   0.50870   0.01267  Uiso   1.00
H43    H     0.10040   0.87280   0.31900   0.01267  Uiso   1.00
H44    H     0.24450   0.84680   0.51040   0.01267  Uiso   1.00
H45    H     0.07050   0.85980   0.49960   0.01267  Uiso   1.00
H46    H     0.27100   0.85880   0.27220   0.01267  Uiso   1.00
H47    H     0.44760   0.84730   0.28270   0.01267  Uiso   1.00
H48    H     0.41600   0.83600   0.46380   0.01267  Uiso   1.00
C49    C     0.84430   0.96030   0.20646   0.01267  Uiso   1.00
C50    C     0.84710   0.96660   0.14613   0.01267  Uiso   1.00
C51    C     0.79000   0.88530   0.11301   0.01267  Uiso   1.00
C52    C     0.73260   0.79880   0.14140   0.01267  Uiso   1.00
C53    C     0.73260   0.79980   0.20353   0.01267  Uiso   1.00
C54    C     0.88090   0.88020   0.01878   0.01267  Uiso   1.00
C55    C     0.87470   0.87330   0.95273   0.01267  Uiso   1.00
C56    C     0.77820   0.87220   0.92299   0.01267  Uiso   1.00
C57    C     0.68740   0.87760   0.95467   0.01267  Uiso   1.00
C58    C     0.68910   0.88410   0.02129   0.01267  Uiso   1.00
C59    C     0.59430   0.87910   0.92531   0.01267  Uiso   1.00
C60    C     0.59050   0.87200   0.86224   0.01267  Uiso   1.00
C61    C     0.67870   0.86620   0.83000   0.01267  Uiso   1.00
C62    C     0.77600   0.86710   0.85931   0.01267  Uiso   1.00
C63    C     0.86800   0.86220   0.82859   0.01267  Uiso   1.00
C64    C     0.96010   0.86340   0.85770   0.01267  Uiso   1.00
C65    C     0.96420   0.86900   0.92078   0.01267  Uiso   1.00
C66    C     0.86540   0.85620   0.76174   0.01267  Uiso   1.00
C67    C     0.67520   0.86380   0.76510   0.01267  Uiso   1.00
C68    C     0.76380   0.85390   0.66988   0.01267  Uiso   1.00
C69    C     0.71910   0.76150   0.64305   0.01267  Uiso   1.00
C70    C     0.71300   0.75860   0.58031   0.01267  Uiso   1.00
C71    C     0.79710   0.93400   0.57514   0.01267  Uiso   1.00
C72    C     0.80630   0.94120   0.63798   0.01267  Uiso   1.00
C73    C     0.74550   0.65990   0.38370   0.01267  Uiso   1.00
C74    C     0.74630   0.54510   0.37719   0.01267  Uiso   1.00
C75    C     0.75650   0.50690   0.31930   0.01267  Uiso   1.00
C76    C     0.75970   0.40270   0.31110   0.01267  Uiso   1.00
C77    C     0.75610   0.33580   0.36230   0.01267  Uiso   1.00
C78    C     0.74580   0.37600   0.42010   0.01267  Uiso   1.00
C79    C     0.74090   0.48290   0.42542   0.01267  Uiso   1.00
C80    C     0.76210   0.22910   0.35604   0.01267  Uiso   1.00
C81    C     0.75830   0.16700   0.40461   0.01267  Uiso   1.00
C82    C     0.74690   0.20790   0.46290   0.01267  Uiso   1.00
C83    C     0.74340   0.31060   0.46959   0.01267  Uiso   1.00
C84    C     0.76450   0.05490   0.39740   0.01267  Uiso   1.00
C85    C     0.95760   0.87420   0.40145   0.01267  Uiso   1.00
C86    C     0.07150   0.86870   0.40786   0.01267  Uiso   1.00
C87    C     0.13020   0.86740   0.35741   0.01267  Uiso   1.00
C88    C     0.23650   0.85800   0.36296   0.01267  Uiso   1.00
C89    C     0.27820   0.85130   0.42102   0.01267  Uiso   1.00
C90    C     0.21590   0.85190   0.47158   0.01267  Uiso   1.00
C91    C     0.11350   0.86000   0.46520   0.01267  Uiso   1.00
C92    C     0.30020   0.85550   0.31098   0.01267  Uiso   1.00
C93    C     0.40490   0.84830   0.31716   0.01267  Uiso   1.00
C94    C     0.44700   0.84250   0.37463   0.01267  Uiso   1.00
C95    C     0.38610   0.84230   0.42546   0.01267  Uiso   1.00
C96    C     0.56090   0.83720   0.38202   0.01267  Uiso   1.00
N5     N     0.78680   0.87700   0.23587   0.01267  Uiso   1.00
N6     N     0.78700   0.88980   0.04783   0.01267  Uiso   1.00
N7     N     0.76920   0.85730   0.73514   0.01267  Uiso   1.00
N8     N     0.75030   0.84560   0.54750   0.01267  Uiso   1.00
O13    O     0.96030   0.88060   0.04666   0.01267  Uiso   1.00
O14    O     0.61380   0.89030   0.05022   0.01267  Uiso   1.00
O15    O     0.94260   0.85150   0.73151   0.01267  Uiso   1.00
O16    O     0.59590   0.86390   0.73545   0.01267  Uiso   1.00
O17    O     0.59240   0.82690   0.43303   0.01267  Uiso   1.00
O18    O     0.61511   0.84770   0.33463   0.01267  Uiso   1.00
O19    O     0.92500   0.88620   0.34945   0.01267  Uiso   1.00
O20    O     0.90414   0.86770   0.44928   0.01267  Uiso   1.00
O21    O     0.75790   0.00210   0.44436   0.01267  Uiso   1.00
O22    O     0.77860   0.02310   0.34579   0.01267  Uiso   1.00
O23    O     0.73770   0.69310   0.43590   0.01267  Uiso   1.00
O24    O     0.75670   0.71260   0.33769   0.01267  Uiso   1.00
