data_MICCIM_clean
_audit_creation_date              2014-07-02
_audit_creation_method            'Materials Studio'
_symmetry_space_group_name_H-M    'P1'
_symmetry_Int_Tables_number       1
_symmetry_cell_setting            triclinic
loop_
_symmetry_equiv_pos_as_xyz
  x,y,z
_cell_length_a                    5.9080
_cell_length_b                    23.3943
_cell_length_c                    26.3263
_cell_angle_alpha                 83.9349
_cell_angle_beta                  83.5574
_cell_angle_gamma                 82.7459
loop_
_atom_site_label
_atom_site_type_symbol
_atom_site_fract_x
_atom_site_fract_y
_atom_site_fract_z
_atom_site_U_iso_or_equiv
_atom_site_adp_type
_atom_site_occupancy
Cd1    Cd    0.22248   0.80173   0.70711   0.01267  Uiso   1.00
Cd2    Cd    0.73132   0.69827   0.79289   0.01267  Uiso   1.00
Cd3    Cd    0.77752   0.19827   0.29289   0.01267  Uiso   1.00
Cd4    Cd    0.26868   0.30173   0.20711   0.01267  Uiso   1.00
Cd5    Cd    0.93040   0.25000   0.75000   0.01267  Uiso   1.00
Cd6    Cd    0.06960   0.75000   0.25000   0.01267  Uiso   1.00
H1     H     0.57500   0.93400   0.78160   0.01267  Uiso   1.00
H2     H     0.41720   1.00000   0.83960   0.01267  Uiso   1.00
H3     H     0.00330   0.98020   0.90580   0.01267  Uiso   1.00
H4     H     0.16380   0.91370   0.84770   0.01267  Uiso   1.00
H5     H     0.47560   0.11480   0.84740   0.01267  Uiso   1.00
H6     H     0.83800   0.15020   0.91860   0.01267  Uiso   1.00
H7     H     0.28690   0.02630   0.98450   0.01267  Uiso   1.00
H8     H     0.49490   0.08410   0.04190   0.01267  Uiso   1.00
H9     H     0.32670   0.14880   0.10200   0.01267  Uiso   1.00
H10    H     0.89860   0.22400   0.08840   0.01267  Uiso   1.00
H11    H     0.06230   0.16330   0.02230   0.01267  Uiso   1.00
H12    H     0.29060   0.56600   0.71840   0.01267  Uiso   1.00
H13    H     0.25680   0.50000   0.66040   0.01267  Uiso   1.00
H14    H     0.88930   0.51980   0.59420   0.01267  Uiso   1.00
H15    H     0.92520   0.58630   0.65230   0.01267  Uiso   1.00
H16    H     0.43780   0.38520   0.65260   0.01267  Uiso   1.00
H17    H     0.90680   0.34980   0.58140   0.01267  Uiso   1.00
H18    H     0.29770   0.47370   0.51550   0.01267  Uiso   1.00
H19    H     0.62090   0.41590   0.45810   0.01267  Uiso   1.00
H20    H     0.57750   0.35120   0.39800   0.01267  Uiso   1.00
H21    H     0.21100   0.27600   0.41160   0.01267  Uiso   1.00
H22    H     0.24790   0.33670   0.47770   0.01267  Uiso   1.00
H23    H     0.42500   0.06600   0.21840   0.01267  Uiso   1.00
H24    H     0.58280   0.00000   0.16040   0.01267  Uiso   1.00
H25    H     0.99670   0.01980   0.09420   0.01267  Uiso   1.00
H26    H     0.83620   0.08630   0.15230   0.01267  Uiso   1.00
H27    H     0.52440   0.88520   0.15260   0.01267  Uiso   1.00
H28    H     0.16200   0.84980   0.08140   0.01267  Uiso   1.00
H29    H     0.71310   0.97370   0.01550   0.01267  Uiso   1.00
H30    H     0.50510   0.91590   0.95810   0.01267  Uiso   1.00
H31    H     0.67330   0.85120   0.89800   0.01267  Uiso   1.00
H32    H     0.10140   0.77600   0.91160   0.01267  Uiso   1.00
H33    H     0.93770   0.83670   0.97770   0.01267  Uiso   1.00
H34    H     0.70940   0.43400   0.28160   0.01267  Uiso   1.00
H35    H     0.74320   0.50000   0.33960   0.01267  Uiso   1.00
H36    H     0.11070   0.48020   0.40580   0.01267  Uiso   1.00
H37    H     0.07480   0.41370   0.34770   0.01267  Uiso   1.00
H38    H     0.56220   0.61480   0.34740   0.01267  Uiso   1.00
H39    H     0.09320   0.65020   0.41860   0.01267  Uiso   1.00
H40    H     0.70230   0.52630   0.48450   0.01267  Uiso   1.00
H41    H     0.37910   0.58410   0.54190   0.01267  Uiso   1.00
H42    H     0.42250   0.64880   0.60200   0.01267  Uiso   1.00
H43    H     0.78900   0.72400   0.58840   0.01267  Uiso   1.00
H44    H     0.75210   0.66330   0.52230   0.01267  Uiso   1.00
C1     C     0.99365   0.87533   0.77117   0.01267  Uiso   1.00
C2     C     0.88718   0.91866   0.80798   0.01267  Uiso   1.00
C3     C     0.66225   0.94367   0.80603   0.01267  Uiso   1.00
C4     C     0.56799   0.98306   0.84076   0.01267  Uiso   1.00
C5     C     0.69879   0.99716   0.87706   0.01267  Uiso   1.00
C6     C     0.91861   0.97143   0.88055   0.01267  Uiso   1.00
C7     C     0.01481   0.93154   0.84564   0.01267  Uiso   1.00
C8     C     0.40934   0.06500   0.91372   0.01267  Uiso   1.00
C9     C     0.36455   0.10712   0.87438   0.01267  Uiso   1.00
C10    C     0.14305   0.13830   0.87660   0.01267  Uiso   1.00
C11    C     0.98271   0.12926   0.91752   0.01267  Uiso   1.00
C12    C     0.03913   0.08931   0.95623   0.01267  Uiso   1.00
C13    C     0.25294   0.05398   0.95754   0.01267  Uiso   1.00
C14    C     0.78786   0.11976   0.02792   0.01267  Uiso   1.00
C15    C     0.57401   0.11328   0.05010   0.01267  Uiso   1.00
C16    C     0.47402   0.15216   0.08620   0.01267  Uiso   1.00
C17    C     0.59156   0.19418   0.09790   0.01267  Uiso   1.00
C18    C     0.81379   0.19759   0.07743   0.01267  Uiso   1.00
C19    C     0.91619   0.16005   0.03877   0.01267  Uiso   1.00
C20    C     0.48642   0.23426   0.13590   0.01267  Uiso   1.00
C21    C     0.07765   0.18060   0.83250   0.01267  Uiso   1.00
C22    C     0.64015   0.62467   0.72883   0.01267  Uiso   1.00
C23    C     0.61382   0.58134   0.69202   0.01267  Uiso   1.00
C24    C     0.41195   0.55633   0.69397   0.01267  Uiso   1.00
C25    C     0.39181   0.51694   0.65924   0.01267  Uiso   1.00
C26    C     0.57301   0.50284   0.62294   0.01267  Uiso   1.00
C27    C     0.77059   0.52857   0.61945   0.01267  Uiso   1.00
C28    C     0.79199   0.56846   0.65436   0.01267  Uiso   1.00
C29    C     0.38806   0.43500   0.58628   0.01267  Uiso   1.00
C30    C     0.34605   0.39288   0.62562   0.01267  Uiso   1.00
C31    C     0.15795   0.36170   0.62340   0.01267  Uiso   1.00
C32    C     0.02949   0.37074   0.58248   0.01267  Uiso   1.00
C33    C     0.08467   0.41069   0.54377   0.01267  Uiso   1.00
C34    C     0.26446   0.44602   0.54246   0.01267  Uiso   1.00
C35    C     0.93554   0.38024   0.47208   0.01267  Uiso   1.00
C36    C     0.73739   0.38672   0.44990   0.01267  Uiso   1.00
C37    C     0.71238   0.34784   0.41380   0.01267  Uiso   1.00
C38    C     0.88364   0.30582   0.40210   0.01267  Uiso   1.00
C39    C     0.08881   0.30241   0.42257   0.01267  Uiso   1.00
C40    C     0.11501   0.33995   0.46123   0.01267  Uiso   1.00
C41    C     0.85658   0.26574   0.36410   0.01267  Uiso   1.00
C42    C     0.09075   0.31940   0.66750   0.01267  Uiso   1.00
C43    C     0.00635   0.12467   0.22883   0.01267  Uiso   1.00
C44    C     0.11282   0.08134   0.19202   0.01267  Uiso   1.00
C45    C     0.33775   0.05633   0.19397   0.01267  Uiso   1.00
C46    C     0.43201   0.01694   0.15924   0.01267  Uiso   1.00
C47    C     0.30121   0.00284   0.12294   0.01267  Uiso   1.00
C48    C     0.08139   0.02857   0.11945   0.01267  Uiso   1.00
C49    C     0.98519   0.06846   0.15436   0.01267  Uiso   1.00
C50    C     0.59066   0.93500   0.08628   0.01267  Uiso   1.00
C51    C     0.63545   0.89288   0.12562   0.01267  Uiso   1.00
C52    C     0.85695   0.86170   0.12340   0.01267  Uiso   1.00
C53    C     0.01729   0.87074   0.08248   0.01267  Uiso   1.00
C54    C     0.96087   0.91069   0.04377   0.01267  Uiso   1.00
C55    C     0.74706   0.94602   0.04246   0.01267  Uiso   1.00
C56    C     0.21214   0.88024   0.97208   0.01267  Uiso   1.00
C57    C     0.42599   0.88672   0.94990   0.01267  Uiso   1.00
C58    C     0.52598   0.84784   0.91380   0.01267  Uiso   1.00
C59    C     0.40844   0.80582   0.90210   0.01267  Uiso   1.00
C60    C     0.18621   0.80241   0.92257   0.01267  Uiso   1.00
C61    C     0.08381   0.83995   0.96123   0.01267  Uiso   1.00
C62    C     0.51358   0.76574   0.86410   0.01267  Uiso   1.00
C63    C     0.92235   0.81940   0.16750   0.01267  Uiso   1.00
C64    C     0.35985   0.37533   0.27117   0.01267  Uiso   1.00
C65    C     0.38618   0.41866   0.30798   0.01267  Uiso   1.00
C66    C     0.58805   0.44367   0.30603   0.01267  Uiso   1.00
C67    C     0.60819   0.48306   0.34076   0.01267  Uiso   1.00
C68    C     0.42699   0.49716   0.37706   0.01267  Uiso   1.00
C69    C     0.22941   0.47143   0.38055   0.01267  Uiso   1.00
C70    C     0.20801   0.43154   0.34564   0.01267  Uiso   1.00
C71    C     0.61194   0.56500   0.41372   0.01267  Uiso   1.00
C72    C     0.65395   0.60712   0.37438   0.01267  Uiso   1.00
C73    C     0.84205   0.63830   0.37660   0.01267  Uiso   1.00
C74    C     0.97051   0.62926   0.41752   0.01267  Uiso   1.00
C75    C     0.91533   0.58931   0.45623   0.01267  Uiso   1.00
C76    C     0.73554   0.55398   0.45754   0.01267  Uiso   1.00
C77    C     0.06446   0.61976   0.52792   0.01267  Uiso   1.00
C78    C     0.26261   0.61328   0.55010   0.01267  Uiso   1.00
C79    C     0.28762   0.65216   0.58620   0.01267  Uiso   1.00
C80    C     0.11636   0.69418   0.59790   0.01267  Uiso   1.00
C81    C     0.91119   0.69759   0.57743   0.01267  Uiso   1.00
C82    C     0.88499   0.66005   0.53877   0.01267  Uiso   1.00
C83    C     0.14342   0.73426   0.63590   0.01267  Uiso   1.00
C84    C     0.90925   0.68060   0.33250   0.01267  Uiso   1.00
O1     O     0.87443   0.86197   0.73817   0.01267  Uiso   1.00
O2     O     0.19825   0.85497   0.77473   0.01267  Uiso   1.00
O3     O     0.62235   0.03184   0.91526   0.01267  Uiso   1.00
O4     O     0.88048   0.07580   0.99704   0.01267  Uiso   1.00
O5     O     0.59747   0.27120   0.15046   0.01267  Uiso   1.00
O6     O     0.28770   0.22791   0.15569   0.01267  Uiso   1.00
O7     O     0.22591   0.19825   0.80033   0.01267  Uiso   1.00
O8     O     0.87065   0.19909   0.82901   0.01267  Uiso   1.00
O9     O     0.47457   0.63803   0.76183   0.01267  Uiso   1.00
O10    O     0.82795   0.64503   0.72527   0.01267  Uiso   1.00
O11    O     0.56945   0.46816   0.58474   0.01267  Uiso   1.00
O12    O     0.95332   0.42420   0.50296   0.01267  Uiso   1.00
O13    O     0.01913   0.22880   0.34954   0.01267  Uiso   1.00
O14    O     0.67130   0.27209   0.34431   0.01267  Uiso   1.00
O15    O     0.22449   0.30175   0.69967   0.01267  Uiso   1.00
O16    O     0.89875   0.30091   0.67099   0.01267  Uiso   1.00
O17    O     0.12557   0.13803   0.26183   0.01267  Uiso   1.00
O18    O     0.80175   0.14503   0.22527   0.01267  Uiso   1.00
O19    O     0.37765   0.96816   0.08474   0.01267  Uiso   1.00
O20    O     0.11952   0.92420   0.00296   0.01267  Uiso   1.00
O21    O     0.40253   0.72880   0.84954   0.01267  Uiso   1.00
O22    O     0.71230   0.77209   0.84431   0.01267  Uiso   1.00
O23    O     0.77409   0.80175   0.19967   0.01267  Uiso   1.00
O24    O     0.12935   0.80091   0.17099   0.01267  Uiso   1.00
O25    O     0.52543   0.36197   0.23817   0.01267  Uiso   1.00
O26    O     0.17205   0.35497   0.27473   0.01267  Uiso   1.00
O27    O     0.43055   0.53184   0.41526   0.01267  Uiso   1.00
O28    O     0.04668   0.57580   0.49704   0.01267  Uiso   1.00
O29    O     0.98087   0.77120   0.65046   0.01267  Uiso   1.00
O30    O     0.32870   0.72791   0.65569   0.01267  Uiso   1.00
O31    O     0.77551   0.69825   0.30033   0.01267  Uiso   1.00
O32    O     0.10125   0.69909   0.32901   0.01267  Uiso   1.00
