data_MIFQEY_clean
_audit_creation_date              2014-07-02
_audit_creation_method            'Materials Studio'
_symmetry_space_group_name_H-M    'P1'
_symmetry_Int_Tables_number       1
_symmetry_cell_setting            triclinic
loop_
_symmetry_equiv_pos_as_xyz
  x,y,z
_cell_length_a                    9.4801
_cell_length_b                    9.4801
_cell_length_c                    27.8160
_cell_angle_alpha                 82.4987
_cell_angle_beta                  82.4987
_cell_angle_gamma                 63.0376
loop_
_atom_site_label
_atom_site_type_symbol
_atom_site_fract_x
_atom_site_fract_y
_atom_site_fract_z
_atom_site_U_iso_or_equiv
_atom_site_adp_type
_atom_site_occupancy
Ba1    Ba    0.41440   0.17320   0.77030   0.01267  Uiso   1.00
Ba2    Ba    0.88260   0.19480   0.82010   0.01267  Uiso   1.00
Ba3    Ba    0.17320   0.41440   0.27030   0.01267  Uiso   1.00
Ba4    Ba    0.19480   0.88260   0.32010   0.01267  Uiso   1.00
Na1    Na    0.99640   0.37560   0.55820   0.01267  Uiso   1.00
Na2    Na    0.37560   0.99640   0.05820   0.01267  Uiso   1.00
Co1    Co    0.94430   0.92570   0.69150   0.01267  Uiso   1.00
Co2    Co    0.35640   0.44600   0.89690   0.01267  Uiso   1.00
Co3    Co    0.92570   0.94430   0.19150   0.01267  Uiso   1.00
Co4    Co    0.44600   0.35640   0.39690   0.01267  Uiso   1.00
C1     C     0.04290   0.74990   0.61240   0.01267  Uiso   1.00
C2     C     0.16520   0.81240   0.61480   0.01267  Uiso   1.00
C3     C     0.77120   0.80300   0.65630   0.01267  Uiso   1.00
C4     C     0.67520   0.89660   0.69960   0.01267  Uiso   1.00
C5     C     0.81010   0.01210   0.60200   0.01267  Uiso   1.00
C6     C     0.84720   0.14280   0.61320   0.01267  Uiso   1.00
C7     C     0.22340   0.95180   0.67750   0.01267  Uiso   1.00
C8     C     0.14000   0.01700   0.72660   0.01267  Uiso   1.00
C9     C     0.25160   0.67860   0.69630   0.01267  Uiso   1.00
C10    C     0.13760   0.61800   0.72260   0.01267  Uiso   1.00
C11    C     0.26060   0.61900   0.97680   0.01267  Uiso   1.00
C12    C     0.14120   0.55120   0.97540   0.01267  Uiso   1.00
C13    C     0.52840   0.57000   0.93180   0.01267  Uiso   1.00
C14    C     0.62520   0.47580   0.88820   0.01267  Uiso   1.00
C15    C     0.49570   0.35790   0.98550   0.01267  Uiso   1.00
C16    C     0.46900   0.22280   0.97220   0.01267  Uiso   1.00
C17    C     0.08250   0.41230   0.91360   0.01267  Uiso   1.00
C18    C     0.16140   0.35140   0.86320   0.01267  Uiso   1.00
C19    C     0.04440   0.68760   0.89540   0.01267  Uiso   1.00
C20    C     0.15410   0.75190   0.86700   0.01267  Uiso   1.00
C21    C     0.74990   0.04290   0.11240   0.01267  Uiso   1.00
C22    C     0.81240   0.16520   0.11480   0.01267  Uiso   1.00
C23    C     0.80300   0.77120   0.15630   0.01267  Uiso   1.00
C24    C     0.89660   0.67520   0.19960   0.01267  Uiso   1.00
C25    C     0.01210   0.81010   0.10200   0.01267  Uiso   1.00
C26    C     0.14280   0.84720   0.11320   0.01267  Uiso   1.00
C27    C     0.95180   0.22340   0.17750   0.01267  Uiso   1.00
C28    C     0.01700   0.14000   0.22660   0.01267  Uiso   1.00
C29    C     0.67860   0.25160   0.19630   0.01267  Uiso   1.00
C30    C     0.61800   0.13760   0.22260   0.01267  Uiso   1.00
C31    C     0.61900   0.26060   0.47680   0.01267  Uiso   1.00
C32    C     0.55120   0.14120   0.47540   0.01267  Uiso   1.00
C33    C     0.57000   0.52840   0.43180   0.01267  Uiso   1.00
C34    C     0.47580   0.62520   0.38820   0.01267  Uiso   1.00
C35    C     0.35790   0.49570   0.48550   0.01267  Uiso   1.00
C36    C     0.22280   0.46900   0.47220   0.01267  Uiso   1.00
C37    C     0.41230   0.08250   0.41360   0.01267  Uiso   1.00
C38    C     0.35140   0.16140   0.36320   0.01267  Uiso   1.00
C39    C     0.68760   0.04440   0.39540   0.01267  Uiso   1.00
C40    C     0.75190   0.15410   0.36700   0.01267  Uiso   1.00
N1     N     0.88820   0.86580   0.63580   0.01267  Uiso   1.00
N2     N     0.16550   0.83470   0.66780   0.01267  Uiso   1.00
N3     N     0.41540   0.50400   0.95260   0.01267  Uiso   1.00
N4     N     0.13700   0.53080   0.92280   0.01267  Uiso   1.00
N5     N     0.86580   0.88820   0.13580   0.01267  Uiso   1.00
N6     N     0.83470   0.16550   0.16780   0.01267  Uiso   1.00
N7     N     0.50400   0.41540   0.45260   0.01267  Uiso   1.00
N8     N     0.53080   0.13700   0.42280   0.01267  Uiso   1.00
Cl1    Cl    0.34020   0.29440   0.62390   0.01267  Uiso   1.00
Cl2    Cl    0.29440   0.34020   0.12390   0.01267  Uiso   1.00
O1     O     0.55540   0.88500   0.71880   0.01267  Uiso   1.00
O2     O     0.72560   0.98840   0.71510   0.01267  Uiso   1.00
O3     O     0.82500   0.25860   0.58430   0.01267  Uiso   1.00
O4     O     0.89940   0.12380   0.65620   0.01267  Uiso   1.00
O5     O     0.18790   0.08410   0.75040   0.01267  Uiso   1.00
O6     O     0.01140   0.99800   0.74130   0.01267  Uiso   1.00
O7     O     0.18350   0.48010   0.74010   0.01267  Uiso   1.00
O8     O     0.99050   0.72410   0.72560   0.01267  Uiso   1.00
O9     O     0.74920   0.48220   0.87080   0.01267  Uiso   1.00
O10    O     0.57170   0.38970   0.87150   0.01267  Uiso   1.00
O11    O     0.50420   0.09920   0.99940   0.01267  Uiso   1.00
O12    O     0.40990   0.24430   0.93090   0.01267  Uiso   1.00
O13    O     0.11230   0.28210   0.84050   0.01267  Uiso   1.00
O14    O     0.28500   0.37500   0.84730   0.01267  Uiso   1.00
O15    O     0.10480   0.88920   0.84850   0.01267  Uiso   1.00
O16    O     0.30290   0.64890   0.86340   0.01267  Uiso   1.00
O17    O     0.40280   0.21780   0.66880   0.01267  Uiso   1.00
O18    O     0.35760   0.43500   0.61090   0.01267  Uiso   1.00
O19    O     0.42170   0.18610   0.58620   0.01267  Uiso   1.00
O20    O     0.17060   0.33680   0.62770   0.01267  Uiso   1.00
O21    O     0.67920   0.04020   0.83360   0.01267  Uiso   1.00
O22    O     0.61240   0.33500   0.75660   0.01267  Uiso   1.00
O23    O     0.88500   0.55540   0.21880   0.01267  Uiso   1.00
O24    O     0.98840   0.72560   0.21510   0.01267  Uiso   1.00
O25    O     0.25860   0.82500   0.08430   0.01267  Uiso   1.00
O26    O     0.12380   0.89940   0.15620   0.01267  Uiso   1.00
O27    O     0.08410   0.18790   0.25040   0.01267  Uiso   1.00
O28    O     0.99800   0.01140   0.24130   0.01267  Uiso   1.00
O29    O     0.48010   0.18350   0.24010   0.01267  Uiso   1.00
O30    O     0.72410   0.99050   0.22560   0.01267  Uiso   1.00
O31    O     0.48220   0.74920   0.37080   0.01267  Uiso   1.00
O32    O     0.38970   0.57170   0.37150   0.01267  Uiso   1.00
O33    O     0.09920   0.50420   0.49940   0.01267  Uiso   1.00
O34    O     0.24430   0.40990   0.43090   0.01267  Uiso   1.00
O35    O     0.28210   0.11230   0.34050   0.01267  Uiso   1.00
O36    O     0.37500   0.28500   0.34730   0.01267  Uiso   1.00
O37    O     0.88920   0.10480   0.34850   0.01267  Uiso   1.00
O38    O     0.64890   0.30290   0.36340   0.01267  Uiso   1.00
O39    O     0.21780   0.40280   0.16880   0.01267  Uiso   1.00
O40    O     0.43500   0.35760   0.11090   0.01267  Uiso   1.00
O41    O     0.18610   0.42170   0.08620   0.01267  Uiso   1.00
O42    O     0.33680   0.17060   0.12770   0.01267  Uiso   1.00
O43    O     0.04020   0.67920   0.33360   0.01267  Uiso   1.00
O44    O     0.33500   0.61240   0.25660   0.01267  Uiso   1.00
