data_MIHMAS_clean
_audit_creation_date              2014-07-02
_audit_creation_method            'Materials Studio'
_symmetry_space_group_name_H-M    'P1'
_symmetry_Int_Tables_number       1
_symmetry_cell_setting            triclinic
loop_
_symmetry_equiv_pos_as_xyz
  x,y,z
_cell_length_a                    9.5168
_cell_length_b                    15.0535
_cell_length_c                    18.0806
_cell_angle_alpha                 92.6233
_cell_angle_beta                  103.7110
_cell_angle_gamma                 95.6065
loop_
_atom_site_label
_atom_site_type_symbol
_atom_site_fract_x
_atom_site_fract_y
_atom_site_fract_z
_atom_site_U_iso_or_equiv
_atom_site_adp_type
_atom_site_occupancy
Dy1    Dy    0.19744   0.44499   0.02973   0.01267  Uiso   1.00
Dy2    Dy    0.80256   0.55501   0.97027   0.01267  Uiso   1.00
Cu1    Cu    0.27757   0.97393   0.55123   0.01267  Uiso   1.00
Cu2    Cu    0.72243   0.02607   0.44877   0.01267  Uiso   1.00
H1     H     0.67850   0.22990   0.57610   0.01267  Uiso   1.00
H2     H     0.54750   0.22080   0.43890   0.01267  Uiso   1.00
H3     H     0.02400   0.06040   0.28990   0.01267  Uiso   1.00
H4     H     0.87370   0.91850   0.30820   0.01267  Uiso   1.00
H5     H     0.98720   0.66940   0.50670   0.01267  Uiso   1.00
H6     H     0.12710   0.67470   0.63990   0.01267  Uiso   1.00
H7     H     0.41400   0.94120   0.83620   0.01267  Uiso   1.00
H8     H     0.55920   0.08330   0.82100   0.01267  Uiso   1.00
H9     H     0.28710   0.28150   0.39200   0.01267  Uiso   1.00
H10    H     0.29890   0.36940   0.29260   0.01267  Uiso   1.00
H11    H     0.29080   0.14900   0.15450   0.01267  Uiso   1.00
H12    H     0.29020   0.06040   0.25710   0.01267  Uiso   1.00
H13    H     0.94610   0.74460   0.29780   0.01267  Uiso   1.00
H14    H     0.77410   0.62390   0.24500   0.01267  Uiso   1.00
H15    H     0.58600   0.65090   0.42380   0.01267  Uiso   1.00
H16    H     0.76200   0.77120   0.47590   0.01267  Uiso   1.00
H17    H     0.46890   0.48110   0.20640   0.01267  Uiso   1.00
H18    H     0.39360   0.69770   0.75320   0.01267  Uiso   1.00
H19    H     0.32620   0.59700   0.83640   0.01267  Uiso   1.00
H20    H     0.03600   0.76220   0.87920   0.01267  Uiso   1.00
H21    H     0.11420   0.86400   0.79890   0.01267  Uiso   1.00
H22    H     0.49680   0.26090   0.74210   0.01267  Uiso   1.00
H23    H     0.65330   0.36220   0.83380   0.01267  Uiso   1.00
H24    H     0.98500   0.22020   0.82220   0.01267  Uiso   1.00
H25    H     0.83390   0.12460   0.72610   0.01267  Uiso   1.00
H26    H     0.32150   0.77010   0.42390   0.01267  Uiso   1.00
H27    H     0.45250   0.77920   0.56110   0.01267  Uiso   1.00
H28    H     0.97600   0.93960   0.71010   0.01267  Uiso   1.00
H29    H     0.12630   0.08150   0.69180   0.01267  Uiso   1.00
H30    H     0.01280   0.33060   0.49330   0.01267  Uiso   1.00
H31    H     0.87290   0.32530   0.36010   0.01267  Uiso   1.00
H32    H     0.58600   0.05880   0.16380   0.01267  Uiso   1.00
H33    H     0.44080   0.91670   0.17900   0.01267  Uiso   1.00
H34    H     0.71290   0.71850   0.60800   0.01267  Uiso   1.00
H35    H     0.70110   0.63060   0.70740   0.01267  Uiso   1.00
H36    H     0.70920   0.85100   0.84550   0.01267  Uiso   1.00
H37    H     0.70980   0.93960   0.74290   0.01267  Uiso   1.00
H38    H     0.05390   0.25540   0.70220   0.01267  Uiso   1.00
H39    H     0.22590   0.37610   0.75500   0.01267  Uiso   1.00
H40    H     0.41400   0.34910   0.57620   0.01267  Uiso   1.00
H41    H     0.23800   0.22880   0.52410   0.01267  Uiso   1.00
H42    H     0.53110   0.51890   0.79360   0.01267  Uiso   1.00
H43    H     0.60640   0.30230   0.24680   0.01267  Uiso   1.00
H44    H     0.67380   0.40300   0.16360   0.01267  Uiso   1.00
H45    H     0.96400   0.23780   0.12080   0.01267  Uiso   1.00
H46    H     0.88580   0.13600   0.20110   0.01267  Uiso   1.00
H47    H     0.50320   0.73910   0.25790   0.01267  Uiso   1.00
H48    H     0.34670   0.63780   0.16620   0.01267  Uiso   1.00
H49    H     0.01500   0.77980   0.17780   0.01267  Uiso   1.00
H50    H     0.16610   0.87540   0.27390   0.01267  Uiso   1.00
C1     C     0.51490   0.12670   0.58880   0.01267  Uiso   1.00
C2     C     0.59310   0.19130   0.55220   0.01267  Uiso   1.00
C3     C     0.52150   0.18660   0.47750   0.01267  Uiso   1.00
C4     C     0.39750   0.11920   0.46780   0.01267  Uiso   1.00
C5     C     0.28870   0.10450   0.40140   0.01267  Uiso   1.00
C6     C     0.17030   0.03620   0.39470   0.01267  Uiso   1.00
C7     C     0.04570   0.02300   0.33110   0.01267  Uiso   1.00
C8     C     0.96260   0.94520   0.34100   0.01267  Uiso   1.00
C9     C     0.03980   0.91400   0.41150   0.01267  Uiso   1.00
C10    C     0.00060   0.83160   0.43730   0.01267  Uiso   1.00
C11    C     0.07480   0.80620   0.50820   0.01267  Uiso   1.00
C12    C     0.04790   0.71940   0.53510   0.01267  Uiso   1.00
C13    C     0.12390   0.72230   0.60710   0.01267  Uiso   1.00
C14    C     0.20020   0.81020   0.62620   0.01267  Uiso   1.00
C15    C     0.27080   0.84310   0.69930   0.01267  Uiso   1.00
C16    C     0.34790   0.92790   0.71520   0.01267  Uiso   1.00
C17    C     0.41990   0.96570   0.78940   0.01267  Uiso   1.00
C18    C     0.49910   0.04330   0.78130   0.01267  Uiso   1.00
C19    C     0.47290   0.05260   0.69980   0.01267  Uiso   1.00
C20    C     0.54500   0.11970   0.66710   0.01267  Uiso   1.00
C21    C     0.28820   0.16050   0.33660   0.01267  Uiso   1.00
C22    C     0.28970   0.25380   0.34410   0.01267  Uiso   1.00
C23    C     0.29480   0.30630   0.28470   0.01267  Uiso   1.00
C24    C     0.29400   0.26830   0.21300   0.01267  Uiso   1.00
C25    C     0.29150   0.17620   0.20310   0.01267  Uiso   1.00
C26    C     0.29000   0.12320   0.26450   0.01267  Uiso   1.00
C27    C     0.29010   0.32570   0.14670   0.01267  Uiso   1.00
C28    C     0.87850   0.76770   0.39480   0.01267  Uiso   1.00
C29    C     0.87540   0.72460   0.32440   0.01267  Uiso   1.00
C30    C     0.77220   0.65350   0.29220   0.01267  Uiso   1.00
C31    C     0.66460   0.62560   0.33040   0.01267  Uiso   1.00
C32    C     0.65990   0.66910   0.39860   0.01267  Uiso   1.00
C33    C     0.76610   0.74030   0.42960   0.01267  Uiso   1.00
C34    C     0.54690   0.54790   0.29870   0.01267  Uiso   1.00
C35    C     0.25140   0.78710   0.76240   0.01267  Uiso   1.00
C36    C     0.31860   0.70980   0.77760   0.01267  Uiso   1.00
C37    C     0.27960   0.64980   0.82700   0.01267  Uiso   1.00
C38    C     0.16950   0.66900   0.86290   0.01267  Uiso   1.00
C39    C     0.10770   0.74840   0.85310   0.01267  Uiso   1.00
C40    C     0.15240   0.80800   0.80400   0.01267  Uiso   1.00
C41    C     0.11140   0.60180   0.91110   0.01267  Uiso   1.00
C42    C     0.65230   0.18570   0.72090   0.01267  Uiso   1.00
C43    C     0.59790   0.25470   0.75610   0.01267  Uiso   1.00
C44    C     0.69060   0.31420   0.81150   0.01267  Uiso   1.00
C45    C     0.83910   0.30370   0.83470   0.01267  Uiso   1.00
C46    C     0.88650   0.23120   0.80390   0.01267  Uiso   1.00
C47    C     0.79620   0.17330   0.74720   0.01267  Uiso   1.00
C48    C     0.93810   0.36650   0.89750   0.01267  Uiso   1.00
C49    C     0.49170   0.45610   0.97520   0.01267  Uiso   1.00
C50    C     0.48510   0.87330   0.41120   0.01267  Uiso   1.00
C51    C     0.40690   0.80870   0.44780   0.01267  Uiso   1.00
C52    C     0.47850   0.81340   0.52250   0.01267  Uiso   1.00
C53    C     0.60250   0.88080   0.53220   0.01267  Uiso   1.00
C54    C     0.71130   0.89550   0.59860   0.01267  Uiso   1.00
C55    C     0.82970   0.96380   0.60530   0.01267  Uiso   1.00
C56    C     0.95430   0.97700   0.66890   0.01267  Uiso   1.00
C57    C     0.03740   0.05480   0.65900   0.01267  Uiso   1.00
C58    C     0.96020   0.08600   0.58850   0.01267  Uiso   1.00
C59    C     0.99940   0.16840   0.56270   0.01267  Uiso   1.00
C60    C     0.92520   0.19380   0.49180   0.01267  Uiso   1.00
C61    C     0.95210   0.28060   0.46490   0.01267  Uiso   1.00
C62    C     0.87610   0.27770   0.39290   0.01267  Uiso   1.00
C63    C     0.79980   0.18980   0.37380   0.01267  Uiso   1.00
C64    C     0.72920   0.15690   0.30070   0.01267  Uiso   1.00
C65    C     0.65210   0.07210   0.28480   0.01267  Uiso   1.00
C66    C     0.58010   0.03430   0.21060   0.01267  Uiso   1.00
C67    C     0.50090   0.95670   0.21870   0.01267  Uiso   1.00
C68    C     0.52710   0.94740   0.30020   0.01267  Uiso   1.00
C69    C     0.45500   0.88030   0.33290   0.01267  Uiso   1.00
C70    C     0.71180   0.83950   0.66340   0.01267  Uiso   1.00
C71    C     0.71030   0.74620   0.65590   0.01267  Uiso   1.00
C72    C     0.70520   0.69370   0.71530   0.01267  Uiso   1.00
C73    C     0.70600   0.73170   0.78700   0.01267  Uiso   1.00
C74    C     0.70850   0.82380   0.79690   0.01267  Uiso   1.00
C75    C     0.71000   0.87680   0.73550   0.01267  Uiso   1.00
C76    C     0.70990   0.67430   0.85330   0.01267  Uiso   1.00
C77    C     0.12150   0.23230   0.60520   0.01267  Uiso   1.00
C78    C     0.12460   0.27540   0.67560   0.01267  Uiso   1.00
C79    C     0.22780   0.34650   0.70780   0.01267  Uiso   1.00
C80    C     0.33540   0.37440   0.66960   0.01267  Uiso   1.00
C81    C     0.34010   0.33090   0.60140   0.01267  Uiso   1.00
C82    C     0.23390   0.25970   0.57040   0.01267  Uiso   1.00
C83    C     0.45310   0.45210   0.70130   0.01267  Uiso   1.00
C84    C     0.74860   0.21290   0.23760   0.01267  Uiso   1.00
C85    C     0.68140   0.29020   0.22240   0.01267  Uiso   1.00
C86    C     0.72040   0.35020   0.17300   0.01267  Uiso   1.00
C87    C     0.83050   0.33100   0.13710   0.01267  Uiso   1.00
C88    C     0.89230   0.25160   0.14690   0.01267  Uiso   1.00
C89    C     0.84760   0.19200   0.19600   0.01267  Uiso   1.00
C90    C     0.88860   0.39820   0.08890   0.01267  Uiso   1.00
C91    C     0.34770   0.81430   0.27910   0.01267  Uiso   1.00
C92    C     0.40210   0.74530   0.24390   0.01267  Uiso   1.00
C93    C     0.30940   0.68580   0.18850   0.01267  Uiso   1.00
C94    C     0.16090   0.69630   0.16530   0.01267  Uiso   1.00
C95    C     0.11350   0.76880   0.19610   0.01267  Uiso   1.00
C96    C     0.20380   0.82670   0.25280   0.01267  Uiso   1.00
C97    C     0.06190   0.63350   0.10250   0.01267  Uiso   1.00
C98    C     0.50830   0.54390   0.02480   0.01267  Uiso   1.00
N1     N     0.39920   0.07990   0.53600   0.01267  Uiso   1.00
N2     N     0.16010   0.97220   0.44540   0.01267  Uiso   1.00
N3     N     0.17370   0.85980   0.56300   0.01267  Uiso   1.00
N4     N     0.37680   0.98330   0.66020   0.01267  Uiso   1.00
N5     N     0.60080   0.92010   0.46400   0.01267  Uiso   1.00
N6     N     0.83990   0.02780   0.55460   0.01267  Uiso   1.00
N7     N     0.82630   0.14020   0.43700   0.01267  Uiso   1.00
N8     N     0.62320   0.01670   0.33980   0.01267  Uiso   1.00
O1     O     0.25880   0.29030   0.07980   0.01267  Uiso   1.00
O2     O     0.31350   0.41050   0.15900   0.01267  Uiso   1.00
O3     O     0.54900   0.51770   0.23040   0.01267  Uiso   1.00
O4     O     0.46150   0.52080   0.33360   0.01267  Uiso   1.00
O5     O     0.18270   0.53700   0.92980   0.01267  Uiso   1.00
O6     O     0.99600   0.61780   0.92800   0.01267  Uiso   1.00
O7     O     0.88850   0.43440   0.91930   0.01267  Uiso   1.00
O8     O     0.06510   0.34620   0.92580   0.01267  Uiso   1.00
O9     O     0.38670   0.39950   0.97660   0.01267  Uiso   1.00
O10    O     0.58630   0.44780   0.93810   0.01267  Uiso   1.00
O11    O     0.74120   0.70970   0.92020   0.01267  Uiso   1.00
O12    O     0.68650   0.58950   0.84100   0.01267  Uiso   1.00
O13    O     0.45100   0.48230   0.76960   0.01267  Uiso   1.00
O14    O     0.53850   0.47920   0.66640   0.01267  Uiso   1.00
O15    O     0.81730   0.46300   0.07020   0.01267  Uiso   1.00
O16    O     0.00400   0.38220   0.07200   0.01267  Uiso   1.00
O17    O     0.11150   0.56560   0.08070   0.01267  Uiso   1.00
O18    O     0.93490   0.65380   0.07420   0.01267  Uiso   1.00
O19    O     0.61330   0.60050   0.02340   0.01267  Uiso   1.00
O20    O     0.41370   0.55220   0.06190   0.01267  Uiso   1.00
