data_MINVUA_clean_h
_audit_creation_date              2014-07-02
_audit_creation_method            'Materials Studio'
_symmetry_space_group_name_H-M    'P1'
_symmetry_Int_Tables_number       1
_symmetry_cell_setting            triclinic
loop_
_symmetry_equiv_pos_as_xyz
  x,y,z
_cell_length_a                    6.8120
_cell_length_b                    11.1399
_cell_length_c                    11.1399
_cell_angle_alpha                 71.6336
_cell_angle_beta                  72.1968
_cell_angle_gamma                 72.1969
loop_
_atom_site_label
_atom_site_type_symbol
_atom_site_fract_x
_atom_site_fract_y
_atom_site_fract_z
_atom_site_U_iso_or_equiv
_atom_site_adp_type
_atom_site_occupancy
Cr1    Cr    0.00000   0.00000   0.50000   0.01267  Uiso   1.00
Cr2    Cr    0.50000   0.00000   0.50000   0.01267  Uiso   1.00
C1     C     0.23600   0.97800   0.94200   0.01267  Uiso   1.00
C2     C     0.26400   0.55800   0.52200   0.01267  Uiso   1.00
C3     C     0.34400   0.44200   0.47800   0.01267  Uiso   1.00
C4     C     0.15600   0.02200   0.05800   0.01267  Uiso   1.00
C5     C     0.76400   0.02200   0.05800   0.01267  Uiso   1.00
C6     C     0.73600   0.44200   0.47800   0.01267  Uiso   1.00
C7     C     0.65600   0.55800   0.52200   0.01267  Uiso   1.00
C8     C     0.84400   0.97800   0.94200   0.01267  Uiso   1.00
C9     C     0.05400   0.98500   0.90700   0.01267  Uiso   1.00
C10    C     0.12500   0.98700   0.76300   0.01267  Uiso   1.00
C11    C     0.44600   0.59300   0.51500   0.01267  Uiso   1.00
C12    C     0.37500   0.73700   0.51300   0.01267  Uiso   1.00
C13    C     0.55400   0.40700   0.48500   0.01267  Uiso   1.00
C14    C     0.62500   0.26300   0.48700   0.01267  Uiso   1.00
C15    C     0.94600   0.01500   0.09300   0.01267  Uiso   1.00
C16    C     0.87500   0.01300   0.23700   0.01267  Uiso   1.00
O1     O     0.01600   0.99100   0.67700   0.01267  Uiso   1.00
O2     O     0.48400   0.82300   0.50900   0.01267  Uiso   1.00
O3     O     0.81600   0.17700   0.49100   0.01267  Uiso   1.00
O4     O     0.68400   0.00900   0.32300   0.01267  Uiso   1.00
O5     O     0.98400   0.00900   0.32300   0.01267  Uiso   1.00
O6     O     0.51600   0.17700   0.49100   0.01267  Uiso   1.00
O7     O     0.18400   0.82300   0.50900   0.01267  Uiso   1.00
O8     O     0.31600   0.99100   0.67700   0.01267  Uiso   1.00
O9     O     0.25000   0.06400   0.43600   0.01267  Uiso   1.00
O10    O     0.75000   0.93600   0.56400   0.01267  Uiso   1.00
H1     H     0.08562   0.59764   0.55189   0.01267  Uiso   1.00
H2     H     0.23515   0.40236   0.44811   0.01267  Uiso   1.00
H3     H     0.91438   0.40236   0.44811   0.01267  Uiso   1.00
H4     H     0.76485   0.59764   0.55189   0.01267  Uiso   1.00
H5     H     0.41438   0.94811   0.90236   0.01267  Uiso   1.00
H6     H     0.26485   0.05189   0.09764   0.01267  Uiso   1.00
H7     H     0.58562   0.05189   0.09764   0.01267  Uiso   1.00
H8     H     0.73515   0.94811   0.90236   0.01267  Uiso   1.00
