data_MIZJUB_clean
_audit_creation_date              2014-07-02
_audit_creation_method            'Materials Studio'
_symmetry_space_group_name_H-M    'P1'
_symmetry_Int_Tables_number       1
_symmetry_cell_setting            triclinic
loop_
_symmetry_equiv_pos_as_xyz
  x,y,z
_cell_length_a                    12.2422
_cell_length_b                    19.3910
_cell_length_c                    21.9419
_cell_angle_alpha                 90.0000
_cell_angle_beta                  100.8620
_cell_angle_gamma                 90.0000
loop_
_atom_site_label
_atom_site_type_symbol
_atom_site_fract_x
_atom_site_fract_y
_atom_site_fract_z
_atom_site_U_iso_or_equiv
_atom_site_adp_type
_atom_site_occupancy
Zn1    Zn    0.32173   0.72355   0.37329   0.01267  Uiso   1.00
Zn2    Zn    0.19194   0.75103   0.62985   0.01267  Uiso   1.00
Zn3    Zn    0.17827   0.22355   0.12671   0.01267  Uiso   1.00
Zn4    Zn    0.30806   0.25103   0.87015   0.01267  Uiso   1.00
H1     H     0.12690   0.42020   0.28550   0.01267  Uiso   1.00
H2     H     0.17940   0.53270   0.31650   0.01267  Uiso   1.00
H3     H     0.12430   0.07210   0.79040   0.01267  Uiso   1.00
H4     H     0.08520   0.95790   0.75980   0.01267  Uiso   1.00
H5     H     0.74900   0.72280   0.60320   0.01267  Uiso   1.00
H6     H     0.58680   0.71950   0.52730   0.01267  Uiso   1.00
H7     H     0.37930   0.60290   0.16680   0.01267  Uiso   1.00
H8     H     0.37630   0.53980   0.12790   0.01267  Uiso   1.00
H9     H     0.36720   0.91440   0.64410   0.01267  Uiso   1.00
H10    H     0.42550   0.98210   0.64840   0.01267  Uiso   1.00
H11    H     0.72490   0.71000   0.34310   0.01267  Uiso   1.00
H12    H     0.84750   0.71790   0.36290   0.01267  Uiso   1.00
H13    H     0.28680   0.44330   0.13990   0.01267  Uiso   1.00
H14    H     0.38330   0.07300   0.70020   0.01267  Uiso   1.00
H15    H     0.93280   0.73130   0.46550   0.01267  Uiso   1.00
H16    H     0.37310   0.92020   0.21450   0.01267  Uiso   1.00
H17    H     0.32060   0.03270   0.18350   0.01267  Uiso   1.00
H18    H     0.37570   0.57210   0.70960   0.01267  Uiso   1.00
H19    H     0.41480   0.45790   0.74020   0.01267  Uiso   1.00
H20    H     0.75100   0.22280   0.89680   0.01267  Uiso   1.00
H21    H     0.91320   0.21950   0.97270   0.01267  Uiso   1.00
H22    H     0.12070   0.10290   0.33320   0.01267  Uiso   1.00
H23    H     0.12370   0.03980   0.37210   0.01267  Uiso   1.00
H24    H     0.13280   0.41440   0.85590   0.01267  Uiso   1.00
H25    H     0.07450   0.48210   0.85160   0.01267  Uiso   1.00
H26    H     0.77510   0.21000   0.15690   0.01267  Uiso   1.00
H27    H     0.65250   0.21790   0.13710   0.01267  Uiso   1.00
H28    H     0.21320   0.94330   0.36010   0.01267  Uiso   1.00
H29    H     0.11670   0.57300   0.79980   0.01267  Uiso   1.00
H30    H     0.56720   0.23130   0.03450   0.01267  Uiso   1.00
C1     C     0.30360   0.62490   0.27370   0.01267  Uiso   1.00
C2     C     0.26690   0.55400   0.24980   0.01267  Uiso   1.00
C3     C     0.30070   0.52730   0.19680   0.01267  Uiso   1.00
C4     C     0.26840   0.45900   0.17820   0.01267  Uiso   1.00
C5     C     0.20700   0.41960   0.21100   0.01267  Uiso   1.00
C6     C     0.17320   0.44740   0.26360   0.01267  Uiso   1.00
C7     C     0.20450   0.51350   0.28120   0.01267  Uiso   1.00
C8     C     0.17670   0.34650   0.19340   0.01267  Uiso   1.00
C9     C     0.18170   0.87290   0.69290   0.01267  Uiso   1.00
C10    C     0.20900   0.94720   0.70990   0.01267  Uiso   1.00
C11    C     0.29740   0.98070   0.69260   0.01267  Uiso   1.00
C12    C     0.32360   0.04760   0.71290   0.01267  Uiso   1.00
C13    C     0.25960   0.08130   0.75010   0.01267  Uiso   1.00
C14    C     0.17010   0.04850   0.76610   0.01267  Uiso   1.00
C15    C     0.14580   0.98150   0.74680   0.01267  Uiso   1.00
C16    C     0.29400   0.15080   0.77520   0.01267  Uiso   1.00
C17    C     0.55490   0.71670   0.40620   0.01267  Uiso   1.00
C18    C     0.66210   0.71840   0.45210   0.01267  Uiso   1.00
C19    C     0.76400   0.72070   0.43340   0.01267  Uiso   1.00
C20    C     0.86330   0.72700   0.47960   0.01267  Uiso   1.00
C21    C     0.85610   0.72850   0.54180   0.01267  Uiso   1.00
C22    C     0.75360   0.72400   0.56000   0.01267  Uiso   1.00
C23    C     0.65790   0.72030   0.51480   0.01267  Uiso   1.00
C24    C     0.96070   0.73560   0.59020   0.01267  Uiso   1.00
C25    C     0.19640   0.12490   0.22630   0.01267  Uiso   1.00
C26    C     0.23310   0.05400   0.25020   0.01267  Uiso   1.00
C27    C     0.19930   0.02730   0.30320   0.01267  Uiso   1.00
C28    C     0.23160   0.95900   0.32180   0.01267  Uiso   1.00
C29    C     0.29300   0.91960   0.28900   0.01267  Uiso   1.00
C30    C     0.32680   0.94740   0.23640   0.01267  Uiso   1.00
C31    C     0.29550   0.01350   0.21880   0.01267  Uiso   1.00
C32    C     0.32330   0.84650   0.30660   0.01267  Uiso   1.00
C33    C     0.31830   0.37290   0.80710   0.01267  Uiso   1.00
C34    C     0.29100   0.44720   0.79010   0.01267  Uiso   1.00
C35    C     0.20260   0.48070   0.80740   0.01267  Uiso   1.00
C36    C     0.17640   0.54760   0.78710   0.01267  Uiso   1.00
C37    C     0.24040   0.58130   0.74990   0.01267  Uiso   1.00
C38    C     0.32990   0.54850   0.73390   0.01267  Uiso   1.00
C39    C     0.35420   0.48150   0.75320   0.01267  Uiso   1.00
C40    C     0.20600   0.65080   0.72480   0.01267  Uiso   1.00
C41    C     0.94510   0.21670   0.09380   0.01267  Uiso   1.00
C42    C     0.83790   0.21840   0.04790   0.01267  Uiso   1.00
C43    C     0.73600   0.22070   0.06660   0.01267  Uiso   1.00
C44    C     0.63670   0.22700   0.02040   0.01267  Uiso   1.00
C45    C     0.64390   0.22850   0.95820   0.01267  Uiso   1.00
C46    C     0.74640   0.22400   0.94000   0.01267  Uiso   1.00
C47    C     0.84210   0.22030   0.98520   0.01267  Uiso   1.00
C48    C     0.53930   0.23560   0.90980   0.01267  Uiso   1.00
N1     N     0.35870   0.56090   0.15910   0.01267  Uiso   1.00
N2     N     0.37270   0.95650   0.65650   0.01267  Uiso   1.00
N3     N     0.78220   0.71580   0.37200   0.01267  Uiso   1.00
N4     N     0.14130   0.06090   0.34090   0.01267  Uiso   1.00
N5     N     0.12730   0.45650   0.84350   0.01267  Uiso   1.00
N6     N     0.71780   0.21580   0.12800   0.01267  Uiso   1.00
O1     O     0.35900   0.66010   0.24350   0.01267  Uiso   1.00
O2     O     0.27430   0.64310   0.32350   0.01267  Uiso   1.00
O3     O     0.11120   0.31630   0.22040   0.01267  Uiso   1.00
O4     O     0.21680   0.31900   0.15130   0.01267  Uiso   1.00
O5     O     0.23080   0.84570   0.65400   0.01267  Uiso   1.00
O6     O     0.10940   0.84390   0.71630   0.01267  Uiso   1.00
O7     O     0.35970   0.18550   0.75000   0.01267  Uiso   1.00
O8     O     0.25390   0.17230   0.81970   0.01267  Uiso   1.00
O9     O     0.55820   0.71090   0.34950   0.01267  Uiso   1.00
O10    O     0.46760   0.72000   0.42710   0.01267  Uiso   1.00
O11    O     0.95190   0.73560   0.64610   0.01267  Uiso   1.00
O12    O     0.05160   0.73860   0.57290   0.01267  Uiso   1.00
O13    O     0.14100   0.16010   0.25650   0.01267  Uiso   1.00
O14    O     0.22570   0.14310   0.17650   0.01267  Uiso   1.00
O15    O     0.38880   0.81630   0.27960   0.01267  Uiso   1.00
O16    O     0.28320   0.81900   0.34870   0.01267  Uiso   1.00
O17    O     0.26920   0.34570   0.84600   0.01267  Uiso   1.00
O18    O     0.39060   0.34390   0.78370   0.01267  Uiso   1.00
O19    O     0.14030   0.68550   0.75000   0.01267  Uiso   1.00
O20    O     0.24610   0.67230   0.68030   0.01267  Uiso   1.00
O21    O     0.94180   0.21090   0.15050   0.01267  Uiso   1.00
O22    O     0.03240   0.22000   0.07290   0.01267  Uiso   1.00
O23    O     0.54810   0.23560   0.85390   0.01267  Uiso   1.00
O24    O     0.44840   0.23860   0.92710   0.01267  Uiso   1.00
Zn5    Zn    0.67827   0.27645   0.62671   0.01267  Uiso   1.00
Zn6    Zn    0.80806   0.24897   0.37015   0.01267  Uiso   1.00
Zn7    Zn    0.82173   0.77645   0.87329   0.01267  Uiso   1.00
Zn8    Zn    0.69194   0.74897   0.12985   0.01267  Uiso   1.00
H31    H     0.87310   0.57980   0.71450   0.01267  Uiso   1.00
H32    H     0.82060   0.46730   0.68350   0.01267  Uiso   1.00
H33    H     0.87570   0.92790   0.20960   0.01267  Uiso   1.00
H34    H     0.91480   0.04210   0.24020   0.01267  Uiso   1.00
H35    H     0.25100   0.27720   0.39680   0.01267  Uiso   1.00
H36    H     0.41320   0.28050   0.47270   0.01267  Uiso   1.00
H37    H     0.62070   0.39710   0.83320   0.01267  Uiso   1.00
H38    H     0.62370   0.46020   0.87210   0.01267  Uiso   1.00
H39    H     0.63280   0.08560   0.35590   0.01267  Uiso   1.00
H40    H     0.57450   0.01790   0.35160   0.01267  Uiso   1.00
H41    H     0.27510   0.29000   0.65690   0.01267  Uiso   1.00
H42    H     0.15250   0.28210   0.63710   0.01267  Uiso   1.00
H43    H     0.71320   0.55670   0.86010   0.01267  Uiso   1.00
H44    H     0.61670   0.92700   0.29980   0.01267  Uiso   1.00
H45    H     0.06720   0.26870   0.53450   0.01267  Uiso   1.00
H46    H     0.62690   0.07980   0.78550   0.01267  Uiso   1.00
H47    H     0.67940   0.96730   0.81650   0.01267  Uiso   1.00
H48    H     0.62430   0.42790   0.29040   0.01267  Uiso   1.00
H49    H     0.58520   0.54210   0.25980   0.01267  Uiso   1.00
H50    H     0.24900   0.77720   0.10320   0.01267  Uiso   1.00
H51    H     0.08680   0.78050   0.02730   0.01267  Uiso   1.00
H52    H     0.87930   0.89710   0.66680   0.01267  Uiso   1.00
H53    H     0.87630   0.96020   0.62790   0.01267  Uiso   1.00
H54    H     0.86720   0.58560   0.14410   0.01267  Uiso   1.00
H55    H     0.92550   0.51790   0.14840   0.01267  Uiso   1.00
H56    H     0.22490   0.79000   0.84310   0.01267  Uiso   1.00
H57    H     0.34750   0.78210   0.86290   0.01267  Uiso   1.00
H58    H     0.78680   0.05670   0.63990   0.01267  Uiso   1.00
H59    H     0.88330   0.42700   0.20020   0.01267  Uiso   1.00
H60    H     0.43280   0.76870   0.96550   0.01267  Uiso   1.00
C49    C     0.69640   0.37510   0.72630   0.01267  Uiso   1.00
C50    C     0.73310   0.44600   0.75020   0.01267  Uiso   1.00
C51    C     0.69930   0.47270   0.80320   0.01267  Uiso   1.00
C52    C     0.73160   0.54100   0.82180   0.01267  Uiso   1.00
C53    C     0.79300   0.58040   0.78900   0.01267  Uiso   1.00
C54    C     0.82680   0.55260   0.73640   0.01267  Uiso   1.00
C55    C     0.79550   0.48650   0.71880   0.01267  Uiso   1.00
C56    C     0.82330   0.65350   0.80660   0.01267  Uiso   1.00
C57    C     0.81830   0.12710   0.30710   0.01267  Uiso   1.00
C58    C     0.79100   0.05280   0.29010   0.01267  Uiso   1.00
C59    C     0.70260   0.01930   0.30740   0.01267  Uiso   1.00
C60    C     0.67640   0.95240   0.28710   0.01267  Uiso   1.00
C61    C     0.74040   0.91870   0.24990   0.01267  Uiso   1.00
C62    C     0.82990   0.95150   0.23390   0.01267  Uiso   1.00
C63    C     0.85420   0.01850   0.25320   0.01267  Uiso   1.00
C64    C     0.70600   0.84920   0.22480   0.01267  Uiso   1.00
C65    C     0.44510   0.28330   0.59380   0.01267  Uiso   1.00
C66    C     0.33790   0.28160   0.54790   0.01267  Uiso   1.00
C67    C     0.23600   0.27930   0.56660   0.01267  Uiso   1.00
C68    C     0.13670   0.27300   0.52040   0.01267  Uiso   1.00
C69    C     0.14390   0.27150   0.45820   0.01267  Uiso   1.00
C70    C     0.24640   0.27600   0.44000   0.01267  Uiso   1.00
C71    C     0.34210   0.27970   0.48520   0.01267  Uiso   1.00
C72    C     0.03930   0.26440   0.40980   0.01267  Uiso   1.00
C73    C     0.80360   0.87510   0.77370   0.01267  Uiso   1.00
C74    C     0.76690   0.94600   0.74980   0.01267  Uiso   1.00
C75    C     0.80070   0.97270   0.69680   0.01267  Uiso   1.00
C76    C     0.76840   0.04100   0.67820   0.01267  Uiso   1.00
C77    C     0.70700   0.08040   0.71100   0.01267  Uiso   1.00
C78    C     0.67320   0.05260   0.76360   0.01267  Uiso   1.00
C79    C     0.70450   0.98650   0.78120   0.01267  Uiso   1.00
C80    C     0.67670   0.15350   0.69340   0.01267  Uiso   1.00
C81    C     0.68170   0.62710   0.19290   0.01267  Uiso   1.00
C82    C     0.70900   0.55280   0.20990   0.01267  Uiso   1.00
C83    C     0.79740   0.51930   0.19260   0.01267  Uiso   1.00
C84    C     0.82360   0.45240   0.21290   0.01267  Uiso   1.00
C85    C     0.75960   0.41870   0.25010   0.01267  Uiso   1.00
C86    C     0.67010   0.45150   0.26610   0.01267  Uiso   1.00
C87    C     0.64580   0.51850   0.24680   0.01267  Uiso   1.00
C88    C     0.79400   0.34920   0.27520   0.01267  Uiso   1.00
C89    C     0.05490   0.78330   0.90620   0.01267  Uiso   1.00
C90    C     0.16210   0.78160   0.95210   0.01267  Uiso   1.00
C91    C     0.26400   0.77930   0.93340   0.01267  Uiso   1.00
C92    C     0.36330   0.77300   0.97960   0.01267  Uiso   1.00
C93    C     0.35610   0.77150   0.04180   0.01267  Uiso   1.00
C94    C     0.25360   0.77600   0.06000   0.01267  Uiso   1.00
C95    C     0.15790   0.77970   0.01480   0.01267  Uiso   1.00
C96    C     0.46070   0.76440   0.09020   0.01267  Uiso   1.00
N7     N     0.64130   0.43910   0.84090   0.01267  Uiso   1.00
N8     N     0.62730   0.04350   0.34350   0.01267  Uiso   1.00
N9     N     0.21780   0.28420   0.62800   0.01267  Uiso   1.00
N10    N     0.85870   0.93910   0.65910   0.01267  Uiso   1.00
N11    N     0.87270   0.54350   0.15650   0.01267  Uiso   1.00
N12    N     0.28220   0.78420   0.87200   0.01267  Uiso   1.00
O25    O     0.64100   0.33990   0.75650   0.01267  Uiso   1.00
O26    O     0.72570   0.35690   0.67650   0.01267  Uiso   1.00
O27    O     0.88880   0.68370   0.77960   0.01267  Uiso   1.00
O28    O     0.78320   0.68100   0.84870   0.01267  Uiso   1.00
O29    O     0.76920   0.15430   0.34600   0.01267  Uiso   1.00
O30    O     0.89060   0.15610   0.28370   0.01267  Uiso   1.00
O31    O     0.64030   0.81450   0.25000   0.01267  Uiso   1.00
O32    O     0.74610   0.82770   0.18030   0.01267  Uiso   1.00
O33    O     0.44180   0.28910   0.65050   0.01267  Uiso   1.00
O34    O     0.53240   0.28000   0.57290   0.01267  Uiso   1.00
O35    O     0.04810   0.26440   0.35390   0.01267  Uiso   1.00
O36    O     0.94840   0.26140   0.42710   0.01267  Uiso   1.00
O37    O     0.85900   0.83990   0.74350   0.01267  Uiso   1.00
O38    O     0.77430   0.85690   0.82350   0.01267  Uiso   1.00
O39    O     0.61120   0.18370   0.72040   0.01267  Uiso   1.00
O40    O     0.71680   0.18100   0.65130   0.01267  Uiso   1.00
O41    O     0.73080   0.65430   0.15400   0.01267  Uiso   1.00
O42    O     0.60940   0.65610   0.21630   0.01267  Uiso   1.00
O43    O     0.85970   0.31450   0.25000   0.01267  Uiso   1.00
O44    O     0.75390   0.32770   0.31970   0.01267  Uiso   1.00
O45    O     0.05820   0.78910   0.84950   0.01267  Uiso   1.00
O46    O     0.96760   0.78000   0.92710   0.01267  Uiso   1.00
O47    O     0.45190   0.76440   0.14610   0.01267  Uiso   1.00
O48    O     0.55160   0.76140   0.07290   0.01267  Uiso   1.00
