data_MODMUN_charged
_audit_creation_date              2014-07-02
_audit_creation_method            'Materials Studio'
_symmetry_space_group_name_H-M    'P1'
_symmetry_Int_Tables_number       1
_symmetry_cell_setting            triclinic
loop_
_symmetry_equiv_pos_as_xyz
  x,y,z
_cell_length_a                    10.9460
_cell_length_b                    15.8470
_cell_length_c                    23.7050
_cell_angle_alpha                 90.0000
_cell_angle_beta                  90.0000
_cell_angle_gamma                 90.0000
loop_
_atom_site_label
_atom_site_type_symbol
_atom_site_fract_x
_atom_site_fract_y
_atom_site_fract_z
_atom_site_U_iso_or_equiv
_atom_site_adp_type
_atom_site_occupancy
Cd1    Cd    0.23080   0.25922   0.63169   0.01267  Uiso   1.00
Cd2    Cd    0.76920   0.24078   0.13169   0.01267  Uiso   1.00
Cd3    Cd    0.23080   0.24078   0.86831   0.01267  Uiso   1.00
Cd4    Cd    0.76920   0.25922   0.36831   0.01267  Uiso   1.00
Cd5    Cd    0.76920   0.74078   0.36831   0.01267  Uiso   1.00
Cd6    Cd    0.23080   0.75922   0.86831   0.01267  Uiso   1.00
Cd7    Cd    0.76920   0.75922   0.13169   0.01267  Uiso   1.00
Cd8    Cd    0.23080   0.74078   0.63169   0.01267  Uiso   1.00
Cd9    Cd    0.50000   0.50000   0.50000   0.01267  Uiso   1.00
Cd10   Cd    0.50000   0.00000   0.00000   0.01267  Uiso   1.00
Cd11   Cd    0.00000   0.00000   0.50000   0.01267  Uiso   1.00
Cd12   Cd    0.00000   0.50000   0.00000   0.01267  Uiso   1.00
Cd13   Cd    0.58230   0.00000   0.63541   0.01267  Uiso   1.00
Cd14   Cd    0.41770   0.50000   0.13541   0.01267  Uiso   1.00
Cd15   Cd    0.58230   0.50000   0.86459   0.01267  Uiso   1.00
Cd16   Cd    0.41770   0.00000   0.36459   0.01267  Uiso   1.00
Cd17   Cd    0.86136   0.50000   0.66795   0.01267  Uiso   1.00
Cd18   Cd    0.13864   0.00000   0.16795   0.01267  Uiso   1.00
Cd19   Cd    0.86136   0.00000   0.83205   0.01267  Uiso   1.00
Cd20   Cd    0.13864   0.50000   0.33205   0.01267  Uiso   1.00
C1     C     0.25090   0.25140   0.72690   0.01267  Uiso   1.00
C2     C     0.33380   0.35650   0.58300   0.01267  Uiso   1.00
C3     C     0.47630   0.11280   0.62880   0.01267  Uiso   1.00
C4     C     0.97910   0.38740   0.65950   0.01267  Uiso   1.00
C5     C     0.12770   0.16110   0.58540   0.01267  Uiso   1.00
C6     C     0.74910   0.24860   0.22690   0.01267  Uiso   1.00
C7     C     0.66620   0.14350   0.08300   0.01267  Uiso   1.00
C8     C     0.52370   0.38720   0.12880   0.01267  Uiso   1.00
C9     C     0.02090   0.11260   0.15950   0.01267  Uiso   1.00
C10    C     0.87230   0.33890   0.08540   0.01267  Uiso   1.00
C11    C     0.25090   0.24860   0.77310   0.01267  Uiso   1.00
C12    C     0.33380   0.14350   0.91700   0.01267  Uiso   1.00
C13    C     0.47630   0.38720   0.87120   0.01267  Uiso   1.00
C14    C     0.97910   0.11260   0.84050   0.01267  Uiso   1.00
C15    C     0.12770   0.33890   0.91460   0.01267  Uiso   1.00
C16    C     0.74910   0.25140   0.27310   0.01267  Uiso   1.00
C17    C     0.66620   0.35650   0.41700   0.01267  Uiso   1.00
C18    C     0.52370   0.11280   0.37120   0.01267  Uiso   1.00
C19    C     0.02090   0.38740   0.34050   0.01267  Uiso   1.00
C20    C     0.87230   0.16110   0.41460   0.01267  Uiso   1.00
C21    C     0.74910   0.74860   0.27310   0.01267  Uiso   1.00
C22    C     0.66620   0.64350   0.41700   0.01267  Uiso   1.00
C23    C     0.52370   0.88720   0.37120   0.01267  Uiso   1.00
C24    C     0.02090   0.61260   0.34050   0.01267  Uiso   1.00
C25    C     0.87230   0.83890   0.41460   0.01267  Uiso   1.00
C26    C     0.25090   0.75140   0.77310   0.01267  Uiso   1.00
C27    C     0.33380   0.85650   0.91700   0.01267  Uiso   1.00
C28    C     0.47630   0.61280   0.87120   0.01267  Uiso   1.00
C29    C     0.97910   0.88740   0.84050   0.01267  Uiso   1.00
C30    C     0.12770   0.66110   0.91460   0.01267  Uiso   1.00
C31    C     0.74910   0.75140   0.22690   0.01267  Uiso   1.00
C32    C     0.66620   0.85650   0.08300   0.01267  Uiso   1.00
C33    C     0.52370   0.61280   0.12880   0.01267  Uiso   1.00
C34    C     0.02090   0.88740   0.15950   0.01267  Uiso   1.00
C35    C     0.87230   0.66110   0.08540   0.01267  Uiso   1.00
C36    C     0.25090   0.74860   0.72690   0.01267  Uiso   1.00
C37    C     0.33380   0.64350   0.58300   0.01267  Uiso   1.00
C38    C     0.47630   0.88720   0.62880   0.01267  Uiso   1.00
C39    C     0.97910   0.61260   0.65950   0.01267  Uiso   1.00
C40    C     0.12770   0.83890   0.58540   0.01267  Uiso   1.00
C41    C     0.73900   0.00000   0.57700   0.01267  Uiso   1.00
C42    C     0.26100   0.50000   0.07700   0.01267  Uiso   1.00
C43    C     0.73900   0.50000   0.92300   0.01267  Uiso   1.00
C44    C     0.26100   0.00000   0.42300   0.01267  Uiso   1.00
C45    C     0.72300   0.50000   0.60140   0.01267  Uiso   1.00
C46    C     0.75300   0.50000   0.74130   0.01267  Uiso   1.00
C47    C     0.27700   0.00000   0.10140   0.01267  Uiso   1.00
C48    C     0.24700   0.00000   0.24130   0.01267  Uiso   1.00
C49    C     0.72300   0.00000   0.89860   0.01267  Uiso   1.00
C50    C     0.75300   0.00000   0.75870   0.01267  Uiso   1.00
C51    C     0.27700   0.50000   0.39860   0.01267  Uiso   1.00
C52    C     0.24700   0.50000   0.25870   0.01267  Uiso   1.00
N1     N     0.39390   0.39850   0.55510   0.01267  Uiso   1.00
N2     N     0.41480   0.17050   0.62660   0.01267  Uiso   1.00
N3     N     0.05060   0.33940   0.65270   0.01267  Uiso   1.00
N4     N     0.08110   0.10860   0.55900   0.01267  Uiso   1.00
N5     N     0.60610   0.10150   0.05510   0.01267  Uiso   1.00
N6     N     0.58520   0.32950   0.12660   0.01267  Uiso   1.00
N7     N     0.94940   0.16060   0.15270   0.01267  Uiso   1.00
N8     N     0.91890   0.39140   0.05900   0.01267  Uiso   1.00
N9     N     0.39390   0.10150   0.94490   0.01267  Uiso   1.00
N10    N     0.41480   0.32950   0.87340   0.01267  Uiso   1.00
N11    N     0.05060   0.16060   0.84730   0.01267  Uiso   1.00
N12    N     0.08110   0.39140   0.94100   0.01267  Uiso   1.00
N13    N     0.60610   0.39850   0.44490   0.01267  Uiso   1.00
N14    N     0.58520   0.17050   0.37340   0.01267  Uiso   1.00
N15    N     0.94940   0.33940   0.34730   0.01267  Uiso   1.00
N16    N     0.91890   0.10860   0.44100   0.01267  Uiso   1.00
N17    N     0.60610   0.60150   0.44490   0.01267  Uiso   1.00
N18    N     0.58520   0.82950   0.37340   0.01267  Uiso   1.00
N19    N     0.94940   0.66060   0.34730   0.01267  Uiso   1.00
N20    N     0.91890   0.89140   0.44100   0.01267  Uiso   1.00
N21    N     0.39390   0.89850   0.94490   0.01267  Uiso   1.00
N22    N     0.41480   0.67050   0.87340   0.01267  Uiso   1.00
N23    N     0.05060   0.83940   0.84730   0.01267  Uiso   1.00
N24    N     0.08110   0.60860   0.94100   0.01267  Uiso   1.00
N25    N     0.60610   0.89850   0.05510   0.01267  Uiso   1.00
N26    N     0.58520   0.67050   0.12660   0.01267  Uiso   1.00
N27    N     0.94940   0.83940   0.15270   0.01267  Uiso   1.00
N28    N     0.91890   0.60860   0.05900   0.01267  Uiso   1.00
N29    N     0.39390   0.60150   0.55510   0.01267  Uiso   1.00
N30    N     0.41480   0.82950   0.62660   0.01267  Uiso   1.00
N31    N     0.05060   0.66060   0.65270   0.01267  Uiso   1.00
N32    N     0.08110   0.89140   0.55900   0.01267  Uiso   1.00
N33    N     0.82200   0.00000   0.55000   0.01267  Uiso   1.00
N34    N     0.17800   0.50000   0.05000   0.01267  Uiso   1.00
N35    N     0.82200   0.50000   0.95000   0.01267  Uiso   1.00
N36    N     0.17800   0.00000   0.45000   0.01267  Uiso   1.00
N37    N     0.65300   0.50000   0.56520   0.01267  Uiso   1.00
N38    N     0.69100   0.50000   0.78160   0.01267  Uiso   1.00
N39    N     0.34700   0.00000   0.06520   0.01267  Uiso   1.00
N40    N     0.30900   0.00000   0.28160   0.01267  Uiso   1.00
N41    N     0.65300   0.00000   0.93480   0.01267  Uiso   1.00
N42    N     0.69100   0.00000   0.71840   0.01267  Uiso   1.00
N43    N     0.34700   0.50000   0.43480   0.01267  Uiso   1.00
N44    N     0.30900   0.50000   0.21840   0.01267  Uiso   1.00
H1     H     0.87360   0.17330   0.61160   0.01267  Uiso   1.00
H2     H     0.87940   0.17540   0.70890   0.01267  Uiso   1.00
H3     H     0.57830   0.32120   0.70870   0.01267  Uiso   1.00
H4     H     0.59720   0.32560   0.61230   0.01267  Uiso   1.00
H5     H     0.71060   0.29630   0.52630   0.01267  Uiso   1.00
H6     H     0.65320   0.20580   0.52990   0.01267  Uiso   1.00
H7     H     0.79540   0.21650   0.52660   0.01267  Uiso   1.00
H8     H     0.87360   0.32670   0.88840   0.01267  Uiso   1.00
H9     H     0.87940   0.32460   0.79110   0.01267  Uiso   1.00
H10    H     0.57830   0.17880   0.79130   0.01267  Uiso   1.00
H11    H     0.59720   0.17440   0.88770   0.01267  Uiso   1.00
H12    H     0.71060   0.20370   0.97370   0.01267  Uiso   1.00
H13    H     0.65320   0.29420   0.97010   0.01267  Uiso   1.00
H14    H     0.79540   0.28350   0.97340   0.01267  Uiso   1.00
C53    C     0.81400   0.20270   0.63120   0.01267  Uiso   1.00
C54    C     0.81820   0.20390   0.68910   0.01267  Uiso   1.00
C55    C     0.72940   0.24940   0.71830   0.01267  Uiso   1.00
C56    C     0.64100   0.29280   0.68960   0.01267  Uiso   1.00
C57    C     0.65100   0.29090   0.63210   0.01267  Uiso   1.00
C58    C     0.72100   0.24030   0.54100   0.01267  Uiso   1.00
C59    C     0.81400   0.29730   0.86880   0.01267  Uiso   1.00
C60    C     0.81820   0.29610   0.81090   0.01267  Uiso   1.00
C61    C     0.72940   0.25060   0.78170   0.01267  Uiso   1.00
C62    C     0.64100   0.20720   0.81040   0.01267  Uiso   1.00
C63    C     0.65100   0.20910   0.86790   0.01267  Uiso   1.00
C64    C     0.72100   0.25970   0.95900   0.01267  Uiso   1.00
N45    N     0.72770   0.24370   0.60370   0.01267  Uiso   1.00
N46    N     0.72770   0.25630   0.89630   0.01267  Uiso   1.00
H15    H     0.12640   0.32670   0.11160   0.01267  Uiso   1.00
H16    H     0.12060   0.32460   0.20890   0.01267  Uiso   1.00
H17    H     0.42170   0.17880   0.20870   0.01267  Uiso   1.00
H18    H     0.40280   0.17440   0.11230   0.01267  Uiso   1.00
H19    H     0.28940   0.20370   0.02630   0.01267  Uiso   1.00
H20    H     0.34680   0.29420   0.02990   0.01267  Uiso   1.00
H21    H     0.20460   0.28350   0.02660   0.01267  Uiso   1.00
H22    H     0.12640   0.17330   0.38840   0.01267  Uiso   1.00
H23    H     0.12060   0.17540   0.29110   0.01267  Uiso   1.00
H24    H     0.42170   0.32120   0.29130   0.01267  Uiso   1.00
H25    H     0.40280   0.32560   0.38770   0.01267  Uiso   1.00
H26    H     0.28940   0.29630   0.47370   0.01267  Uiso   1.00
H27    H     0.34680   0.20580   0.47010   0.01267  Uiso   1.00
H28    H     0.20460   0.21650   0.47340   0.01267  Uiso   1.00
C65    C     0.18600   0.29730   0.13120   0.01267  Uiso   1.00
C66    C     0.18180   0.29610   0.18910   0.01267  Uiso   1.00
C67    C     0.27060   0.25060   0.21830   0.01267  Uiso   1.00
C68    C     0.35900   0.20720   0.18960   0.01267  Uiso   1.00
C69    C     0.34900   0.20910   0.13210   0.01267  Uiso   1.00
C70    C     0.27900   0.25970   0.04100   0.01267  Uiso   1.00
C71    C     0.18600   0.20270   0.36880   0.01267  Uiso   1.00
C72    C     0.18180   0.20390   0.31090   0.01267  Uiso   1.00
C73    C     0.27060   0.24940   0.28170   0.01267  Uiso   1.00
C74    C     0.35900   0.29280   0.31040   0.01267  Uiso   1.00
C75    C     0.34900   0.29090   0.36790   0.01267  Uiso   1.00
C76    C     0.27900   0.24030   0.45900   0.01267  Uiso   1.00
N47    N     0.27230   0.25630   0.10370   0.01267  Uiso   1.00
N48    N     0.27230   0.24370   0.39630   0.01267  Uiso   1.00
H29    H     0.12640   0.82670   0.38840   0.01267  Uiso   1.00
H30    H     0.12060   0.82460   0.29110   0.01267  Uiso   1.00
H31    H     0.42170   0.67880   0.29130   0.01267  Uiso   1.00
H32    H     0.40280   0.67440   0.38770   0.01267  Uiso   1.00
H33    H     0.28940   0.70370   0.47370   0.01267  Uiso   1.00
H34    H     0.34680   0.79420   0.47010   0.01267  Uiso   1.00
H35    H     0.20460   0.78350   0.47340   0.01267  Uiso   1.00
H36    H     0.12640   0.67330   0.11160   0.01267  Uiso   1.00
H37    H     0.12060   0.67540   0.20890   0.01267  Uiso   1.00
H38    H     0.42170   0.82120   0.20870   0.01267  Uiso   1.00
H39    H     0.40280   0.82560   0.11230   0.01267  Uiso   1.00
H40    H     0.28940   0.79630   0.02630   0.01267  Uiso   1.00
H41    H     0.34680   0.70580   0.02990   0.01267  Uiso   1.00
H42    H     0.20460   0.71650   0.02660   0.01267  Uiso   1.00
C77    C     0.18600   0.79730   0.36880   0.01267  Uiso   1.00
C78    C     0.18180   0.79610   0.31090   0.01267  Uiso   1.00
C79    C     0.27060   0.75060   0.28170   0.01267  Uiso   1.00
C80    C     0.35900   0.70720   0.31040   0.01267  Uiso   1.00
C81    C     0.34900   0.70910   0.36790   0.01267  Uiso   1.00
C82    C     0.27900   0.75970   0.45900   0.01267  Uiso   1.00
C83    C     0.18600   0.70270   0.13120   0.01267  Uiso   1.00
C84    C     0.18180   0.70390   0.18910   0.01267  Uiso   1.00
C85    C     0.27060   0.74940   0.21830   0.01267  Uiso   1.00
C86    C     0.35900   0.79280   0.18960   0.01267  Uiso   1.00
C87    C     0.34900   0.79090   0.13210   0.01267  Uiso   1.00
C88    C     0.27900   0.74030   0.04100   0.01267  Uiso   1.00
N49    N     0.27230   0.75630   0.39630   0.01267  Uiso   1.00
N50    N     0.27230   0.74370   0.10370   0.01267  Uiso   1.00
H43    H     0.87360   0.67330   0.88840   0.01267  Uiso   1.00
H44    H     0.87940   0.67540   0.79110   0.01267  Uiso   1.00
H45    H     0.57830   0.82120   0.79130   0.01267  Uiso   1.00
H46    H     0.59720   0.82560   0.88770   0.01267  Uiso   1.00
H47    H     0.71060   0.79630   0.97370   0.01267  Uiso   1.00
H48    H     0.65320   0.70580   0.97010   0.01267  Uiso   1.00
H49    H     0.79540   0.71650   0.97340   0.01267  Uiso   1.00
H50    H     0.87360   0.82670   0.61160   0.01267  Uiso   1.00
H51    H     0.87940   0.82460   0.70890   0.01267  Uiso   1.00
H52    H     0.57830   0.67880   0.70870   0.01267  Uiso   1.00
H53    H     0.59720   0.67440   0.61230   0.01267  Uiso   1.00
H54    H     0.71060   0.70370   0.52630   0.01267  Uiso   1.00
H55    H     0.65320   0.79420   0.52990   0.01267  Uiso   1.00
H56    H     0.79540   0.78350   0.52660   0.01267  Uiso   1.00
C89    C     0.81400   0.70270   0.86880   0.01267  Uiso   1.00
C90    C     0.81820   0.70390   0.81090   0.01267  Uiso   1.00
C91    C     0.72940   0.74940   0.78170   0.01267  Uiso   1.00
C92    C     0.64100   0.79280   0.81040   0.01267  Uiso   1.00
C93    C     0.65100   0.79090   0.86790   0.01267  Uiso   1.00
C94    C     0.72100   0.74030   0.95900   0.01267  Uiso   1.00
C95    C     0.81400   0.79730   0.63120   0.01267  Uiso   1.00
C96    C     0.81820   0.79610   0.68910   0.01267  Uiso   1.00
C97    C     0.72940   0.75060   0.71830   0.01267  Uiso   1.00
C98    C     0.64100   0.70720   0.68960   0.01267  Uiso   1.00
C99    C     0.65100   0.70910   0.63210   0.01267  Uiso   1.00
C100   C     0.72100   0.75970   0.54100   0.01267  Uiso   1.00
N51    N     0.72770   0.74370   0.89630   0.01267  Uiso   1.00
N52    N     0.72770   0.75630   0.60370   0.01267  Uiso   1.00
