data_MODPAW_charged
_audit_creation_date              2014-07-02
_audit_creation_method            'Materials Studio'
_symmetry_space_group_name_H-M    'P1'
_symmetry_Int_Tables_number       1
_symmetry_cell_setting            triclinic
loop_
_symmetry_equiv_pos_as_xyz
  x,y,z
_cell_length_a                    11.1290
_cell_length_b                    15.2774
_cell_length_c                    15.2774
_cell_angle_alpha                 62.0746
_cell_angle_beta                  68.6397
_cell_angle_gamma                 68.6397
loop_
_atom_site_label
_atom_site_type_symbol
_atom_site_fract_x
_atom_site_fract_y
_atom_site_fract_z
_atom_site_U_iso_or_equiv
_atom_site_adp_type
_atom_site_occupancy
Cd1    Cd    0.00000   0.00000   0.00000   0.01267  Uiso   1.00
Cd2    Cd    0.50000   0.50000   0.50000   0.01267  Uiso   1.00
Cd3    Cd    0.88272   0.61728   0.11728   0.01267  Uiso   1.00
Cd4    Cd    0.11728   0.88272   0.38272   0.01267  Uiso   1.00
Cd5    Cd    0.11728   0.38272   0.88272   0.01267  Uiso   1.00
Cd6    Cd    0.88272   0.11728   0.61728   0.01267  Uiso   1.00
Cd7    Cd    0.45711   0.14124   0.14124   0.01267  Uiso   1.00
Cd8    Cd    0.23959   0.35876   0.35876   0.01267  Uiso   1.00
Cd9    Cd    0.76041   0.64124   0.64124   0.01267  Uiso   1.00
Cd10   Cd    0.54289   0.85876   0.85876   0.01267  Uiso   1.00
C1     C     0.93410   0.76530   0.06990   0.01267  Uiso   1.00
C2     C     0.35620   0.24760   0.02180   0.01267  Uiso   1.00
C3     C     0.26930   0.73470   0.43010   0.01267  Uiso   1.00
C4     C     0.12560   0.25240   0.47820   0.01267  Uiso   1.00
C5     C     0.73070   0.56990   0.26530   0.01267  Uiso   1.00
C6     C     0.87440   0.52180   0.74760   0.01267  Uiso   1.00
C7     C     0.06590   0.93010   0.23470   0.01267  Uiso   1.00
C8     C     0.64380   0.97820   0.75240   0.01267  Uiso   1.00
C9     C     0.06590   0.23470   0.93010   0.01267  Uiso   1.00
C10    C     0.64380   0.75240   0.97820   0.01267  Uiso   1.00
C11    C     0.73070   0.26530   0.56990   0.01267  Uiso   1.00
C12    C     0.87440   0.74760   0.52180   0.01267  Uiso   1.00
C13    C     0.26930   0.43010   0.73470   0.01267  Uiso   1.00
C14    C     0.12560   0.47820   0.25240   0.01267  Uiso   1.00
C15    C     0.93410   0.06990   0.76530   0.01267  Uiso   1.00
C16    C     0.35620   0.02180   0.24760   0.01267  Uiso   1.00
C17    C     0.97570   0.52430   0.02430   0.01267  Uiso   1.00
C18    C     0.02430   0.97570   0.47570   0.01267  Uiso   1.00
C19    C     0.02430   0.47570   0.97570   0.01267  Uiso   1.00
C20    C     0.97570   0.02430   0.52430   0.01267  Uiso   1.00
C21    C     0.67110   0.08760   0.08760   0.01267  Uiso   1.00
C22    C     0.44350   0.23250   0.23250   0.01267  Uiso   1.00
C23    C     0.34630   0.41240   0.41240   0.01267  Uiso   1.00
C24    C     0.40850   0.26750   0.26750   0.01267  Uiso   1.00
C25    C     0.65370   0.58760   0.58760   0.01267  Uiso   1.00
C26    C     0.59150   0.73250   0.73250   0.01267  Uiso   1.00
C27    C     0.32890   0.91240   0.91240   0.01267  Uiso   1.00
C28    C     0.55650   0.76750   0.76750   0.01267  Uiso   1.00
N1     N     0.96000   0.83810   0.05050   0.01267  Uiso   1.00
N2     N     0.70100   0.70020   0.03440   0.01267  Uiso   1.00
N3     N     0.34860   0.66190   0.44950   0.01267  Uiso   1.00
N4     N     0.93560   0.79980   0.46560   0.01267  Uiso   1.00
N5     N     0.65140   0.55050   0.33810   0.01267  Uiso   1.00
N6     N     0.06440   0.53440   0.20020   0.01267  Uiso   1.00
N7     N     0.04000   0.94950   0.16190   0.01267  Uiso   1.00
N8     N     0.29900   0.96560   0.29980   0.01267  Uiso   1.00
N9     N     0.04000   0.16190   0.94950   0.01267  Uiso   1.00
N10    N     0.29900   0.29980   0.96560   0.01267  Uiso   1.00
N11    N     0.65140   0.33810   0.55050   0.01267  Uiso   1.00
N12    N     0.06440   0.20020   0.53440   0.01267  Uiso   1.00
N13    N     0.34860   0.44950   0.66190   0.01267  Uiso   1.00
N14    N     0.93560   0.46560   0.79980   0.01267  Uiso   1.00
N15    N     0.96000   0.05050   0.83810   0.01267  Uiso   1.00
N16    N     0.70100   0.03440   0.70020   0.01267  Uiso   1.00
N17    N     0.78170   0.06080   0.06080   0.01267  Uiso   1.00
N18    N     0.40330   0.43920   0.43920   0.01267  Uiso   1.00
N19    N     0.59670   0.56080   0.56080   0.01267  Uiso   1.00
N20    N     0.21830   0.93920   0.93920   0.01267  Uiso   1.00
H1     H     0.49990   0.56480   0.21360   0.01267  Uiso   1.00
H2     H     0.60000   0.46650   0.11910   0.01267  Uiso   1.00
H3     H     0.22170   0.71360   0.06480   0.01267  Uiso   1.00
H4     H     0.31440   0.61910   0.96650   0.01267  Uiso   1.00
H5     H     0.50010   0.43520   0.78640   0.01267  Uiso   1.00
H6     H     0.40000   0.53350   0.88090   0.01267  Uiso   1.00
H7     H     0.77830   0.28640   0.93520   0.01267  Uiso   1.00
H8     H     0.68560   0.38090   0.03350   0.01267  Uiso   1.00
C29    C     0.46220   0.57580   0.16300   0.01267  Uiso   1.00
C30    C     0.52270   0.51660   0.10680   0.01267  Uiso   1.00
C31    C     0.29900   0.66300   0.07580   0.01267  Uiso   1.00
C32    C     0.35390   0.60680   0.01660   0.01267  Uiso   1.00
C33    C     0.53780   0.42420   0.83700   0.01267  Uiso   1.00
C34    C     0.47730   0.48340   0.89320   0.01267  Uiso   1.00
C35    C     0.70100   0.33700   0.92420   0.01267  Uiso   1.00
C36    C     0.64610   0.39320   0.98340   0.01267  Uiso   1.00
C37    C     0.46790   0.53210   0.03210   0.01267  Uiso   1.00
C38    C     0.29090   0.70910   0.20910   0.01267  Uiso   1.00
C39    C     0.53210   0.46790   0.96790   0.01267  Uiso   1.00
C40    C     0.70910   0.29090   0.79090   0.01267  Uiso   1.00
N21    N     0.35170   0.64830   0.14830   0.01267  Uiso   1.00
N22    N     0.64830   0.35170   0.85170   0.01267  Uiso   1.00
H9     H     0.77830   0.93520   0.28640   0.01267  Uiso   1.00
H10    H     0.68560   0.03350   0.38090   0.01267  Uiso   1.00
H11    H     0.50010   0.78640   0.43520   0.01267  Uiso   1.00
H12    H     0.40000   0.88090   0.53350   0.01267  Uiso   1.00
H13    H     0.22170   0.06480   0.71360   0.01267  Uiso   1.00
H14    H     0.31440   0.96650   0.61910   0.01267  Uiso   1.00
H15    H     0.49990   0.21360   0.56480   0.01267  Uiso   1.00
H16    H     0.60000   0.11910   0.46650   0.01267  Uiso   1.00
C41    C     0.70100   0.92420   0.33700   0.01267  Uiso   1.00
C42    C     0.64610   0.98340   0.39320   0.01267  Uiso   1.00
C43    C     0.53780   0.83700   0.42420   0.01267  Uiso   1.00
C44    C     0.47730   0.89320   0.48340   0.01267  Uiso   1.00
C45    C     0.29900   0.07580   0.66300   0.01267  Uiso   1.00
C46    C     0.35390   0.01660   0.60680   0.01267  Uiso   1.00
C47    C     0.46220   0.16300   0.57580   0.01267  Uiso   1.00
C48    C     0.52270   0.10680   0.51660   0.01267  Uiso   1.00
C49    C     0.53210   0.96790   0.46790   0.01267  Uiso   1.00
C50    C     0.70910   0.79090   0.29090   0.01267  Uiso   1.00
C51    C     0.46790   0.03210   0.53210   0.01267  Uiso   1.00
C52    C     0.29090   0.20910   0.70910   0.01267  Uiso   1.00
N23    N     0.64830   0.85170   0.35170   0.01267  Uiso   1.00
N24    N     0.35170   0.14830   0.64830   0.01267  Uiso   1.00
