data_MOXDIN01_clean
_audit_creation_date              2014-07-02
_audit_creation_method            'Materials Studio'
_symmetry_space_group_name_H-M    'P1'
_symmetry_Int_Tables_number       1
_symmetry_cell_setting            triclinic
loop_
_symmetry_equiv_pos_as_xyz
  x,y,z
_cell_length_a                    9.7187
_cell_length_b                    17.1992
_cell_length_c                    18.3920
_cell_angle_alpha                 92.1583
_cell_angle_beta                  90.0000
_cell_angle_gamma                 106.4110
loop_
_atom_site_label
_atom_site_type_symbol
_atom_site_fract_x
_atom_site_fract_y
_atom_site_fract_z
_atom_site_U_iso_or_equiv
_atom_site_adp_type
_atom_site_occupancy
Co1    Co    0.54739   0.69542   0.01291   0.01267  Uiso   1.00
Co2    Co    0.85197   0.30458   0.48709   0.01267  Uiso   1.00
Co3    Co    0.45261   0.30458   0.98709   0.01267  Uiso   1.00
Co4    Co    0.14803   0.69542   0.51291   0.01267  Uiso   1.00
Co5    Co    0.50000   0.50000   0.00000   0.01267  Uiso   1.00
Co6    Co    0.00000   0.50000   0.50000   0.01267  Uiso   1.00
H1     H     0.90770   0.74000   0.69790   0.01267  Uiso   1.00
H2     H     0.84610   0.49900   0.71770   0.01267  Uiso   1.00
H3     H     0.73400   0.50560   0.83050   0.01267  Uiso   1.00
H4     H     0.81250   0.49000   0.08170   0.01267  Uiso   1.00
H5     H     0.95460   0.43440   0.88460   0.01267  Uiso   1.00
H6     H     0.69080   0.11600   0.01150   0.01267  Uiso   1.00
H7     H     0.27580   0.01440   0.97540   0.01267  Uiso   1.00
H8     H     0.79910   0.74640   0.80940   0.01267  Uiso   1.00
H9     H     0.16770   0.26000   0.80210   0.01267  Uiso   1.00
H10    H     0.34710   0.50100   0.78230   0.01267  Uiso   1.00
H11    H     0.22840   0.49440   0.66950   0.01267  Uiso   1.00
H12    H     0.32250   0.51000   0.41830   0.01267  Uiso   1.00
H13    H     0.52020   0.56560   0.61540   0.01267  Uiso   1.00
H14    H     0.57480   0.88400   0.48850   0.01267  Uiso   1.00
H15    H     0.26140   0.98560   0.52460   0.01267  Uiso   1.00
H16    H     0.05270   0.25360   0.69060   0.01267  Uiso   1.00
H17    H     0.09230   0.26000   0.30210   0.01267  Uiso   1.00
H18    H     0.15390   0.50100   0.28230   0.01267  Uiso   1.00
H19    H     0.26600   0.49440   0.16950   0.01267  Uiso   1.00
H20    H     0.18750   0.51000   0.91830   0.01267  Uiso   1.00
H21    H     0.04540   0.56560   0.11540   0.01267  Uiso   1.00
H22    H     0.30920   0.88400   0.98850   0.01267  Uiso   1.00
H23    H     0.72420   0.98560   0.02460   0.01267  Uiso   1.00
H24    H     0.20090   0.25360   0.19060   0.01267  Uiso   1.00
H25    H     0.83230   0.74000   0.19790   0.01267  Uiso   1.00
H26    H     0.65290   0.49900   0.21770   0.01267  Uiso   1.00
H27    H     0.77160   0.50560   0.33050   0.01267  Uiso   1.00
H28    H     0.67750   0.49000   0.58170   0.01267  Uiso   1.00
H29    H     0.47980   0.43440   0.38460   0.01267  Uiso   1.00
H30    H     0.42520   0.11600   0.51150   0.01267  Uiso   1.00
H31    H     0.73860   0.01440   0.47540   0.01267  Uiso   1.00
H32    H     0.94730   0.74640   0.30940   0.01267  Uiso   1.00
C1     C     0.96117   0.61374   0.62579   0.01267  Uiso   1.00
C2     C     0.88657   0.61894   0.69698   0.01267  Uiso   1.00
C3     C     0.87276   0.69232   0.72451   0.01267  Uiso   1.00
C4     C     0.83581   0.54922   0.73632   0.01267  Uiso   1.00
C5     C     0.76930   0.55320   0.80358   0.01267  Uiso   1.00
C6     C     0.75551   0.62722   0.83046   0.01267  Uiso   1.00
C7     C     0.68446   0.63052   0.90213   0.01267  Uiso   1.00
C8     C     0.71177   0.40694   0.95903   0.01267  Uiso   1.00
C9     C     0.86229   0.45678   0.98052   0.01267  Uiso   1.00
C10    C     0.88904   0.49448   0.04855   0.01267  Uiso   1.00
C11    C     0.97331   0.46122   0.93110   0.01267  Uiso   1.00
C12    C     0.45638   0.15876   0.98760   0.01267  Uiso   1.00
C13    C     0.47931   0.07542   0.99500   0.01267  Uiso   1.00
C14    C     0.61128   0.06876   0.00730   0.01267  Uiso   1.00
C15    C     0.36847   0.00934   0.98620   0.01267  Uiso   1.00
C16    C     0.80801   0.69582   0.79066   0.01267  Uiso   1.00
C17    C     0.34743   0.38626   0.87421   0.01267  Uiso   1.00
C18    C     0.26763   0.38106   0.80302   0.01267  Uiso   1.00
C19    C     0.18044   0.30768   0.77549   0.01267  Uiso   1.00
C20    C     0.28659   0.45078   0.76368   0.01267  Uiso   1.00
C21    C     0.21610   0.44680   0.69642   0.01267  Uiso   1.00
C22    C     0.12829   0.37278   0.66954   0.01267  Uiso   1.00
C23    C     0.05394   0.36948   0.59787   0.01267  Uiso   1.00
C24    C     0.30483   0.59306   0.54097   0.01267  Uiso   1.00
C25    C     0.40551   0.54322   0.51948   0.01267  Uiso   1.00
C26    C     0.39456   0.50552   0.45145   0.01267  Uiso   1.00
C27    C     0.51209   0.53878   0.56890   0.01267  Uiso   1.00
C28    C     0.29762   0.84124   0.51240   0.01267  Uiso   1.00
C29    C     0.40389   0.92458   0.50500   0.01267  Uiso   1.00
C30    C     0.54252   0.93124   0.49270   0.01267  Uiso   1.00
C31    C     0.35913   0.99066   0.51380   0.01267  Uiso   1.00
C32    C     0.11219   0.30418   0.70934   0.01267  Uiso   1.00
C33    C     0.03883   0.38626   0.37421   0.01267  Uiso   1.00
C34    C     0.11343   0.38106   0.30302   0.01267  Uiso   1.00
C35    C     0.12724   0.30768   0.27549   0.01267  Uiso   1.00
C36    C     0.16419   0.45078   0.26368   0.01267  Uiso   1.00
C37    C     0.23070   0.44680   0.19642   0.01267  Uiso   1.00
C38    C     0.24449   0.37278   0.16954   0.01267  Uiso   1.00
C39    C     0.31554   0.36948   0.09787   0.01267  Uiso   1.00
C40    C     0.28823   0.59306   0.04097   0.01267  Uiso   1.00
C41    C     0.13771   0.54322   0.01948   0.01267  Uiso   1.00
C42    C     0.11096   0.50552   0.95145   0.01267  Uiso   1.00
C43    C     0.02669   0.53878   0.06890   0.01267  Uiso   1.00
C44    C     0.54362   0.84124   0.01240   0.01267  Uiso   1.00
C45    C     0.52069   0.92458   0.00500   0.01267  Uiso   1.00
C46    C     0.38872   0.93124   0.99270   0.01267  Uiso   1.00
C47    C     0.63153   0.99066   0.01380   0.01267  Uiso   1.00
C48    C     0.19199   0.30418   0.20934   0.01267  Uiso   1.00
C49    C     0.65257   0.61374   0.12579   0.01267  Uiso   1.00
C50    C     0.73237   0.61894   0.19698   0.01267  Uiso   1.00
C51    C     0.81956   0.69232   0.22451   0.01267  Uiso   1.00
C52    C     0.71341   0.54922   0.23632   0.01267  Uiso   1.00
C53    C     0.78390   0.55320   0.30358   0.01267  Uiso   1.00
C54    C     0.87171   0.62722   0.33046   0.01267  Uiso   1.00
C55    C     0.94606   0.63052   0.40213   0.01267  Uiso   1.00
C56    C     0.69517   0.40694   0.45903   0.01267  Uiso   1.00
C57    C     0.59449   0.45678   0.48052   0.01267  Uiso   1.00
C58    C     0.60544   0.49448   0.54855   0.01267  Uiso   1.00
C59    C     0.48791   0.46122   0.43110   0.01267  Uiso   1.00
C60    C     0.70238   0.15876   0.48760   0.01267  Uiso   1.00
C61    C     0.59611   0.07542   0.49500   0.01267  Uiso   1.00
C62    C     0.45748   0.06876   0.50730   0.01267  Uiso   1.00
C63    C     0.64087   0.00934   0.48620   0.01267  Uiso   1.00
C64    C     0.88781   0.69582   0.29066   0.01267  Uiso   1.00
O1     O     0.66816   0.57132   0.94325   0.01267  Uiso   1.00
O2     O     0.64918   0.69436   0.91828   0.01267  Uiso   1.00
O3     O     0.95705   0.54530   0.59987   0.01267  Uiso   1.00
O4     O     0.02119   0.68118   0.59707   0.01267  Uiso   1.00
O5     O     0.55978   0.21976   0.99580   0.01267  Uiso   1.00
O6     O     0.33991   0.16542   0.97140   0.01267  Uiso   1.00
O7     O     0.61091   0.40782   0.00492   0.01267  Uiso   1.00
O8     O     0.69019   0.36558   0.90147   0.01267  Uiso   1.00
O9     O     0.09684   0.42868   0.55675   0.01267  Uiso   1.00
O10    O     0.95482   0.30564   0.58172   0.01267  Uiso   1.00
O11    O     0.41175   0.45470   0.90013   0.01267  Uiso   1.00
O12    O     0.34001   0.31882   0.90293   0.01267  Uiso   1.00
O13    O     0.34002   0.78024   0.50420   0.01267  Uiso   1.00
O14    O     0.17449   0.83458   0.52860   0.01267  Uiso   1.00
O15    O     0.20309   0.59218   0.49508   0.01267  Uiso   1.00
O16    O     0.32461   0.63442   0.59853   0.01267  Uiso   1.00
O17    O     0.33184   0.42868   0.05675   0.01267  Uiso   1.00
O18    O     0.35082   0.30564   0.08172   0.01267  Uiso   1.00
O19    O     0.04295   0.45470   0.40013   0.01267  Uiso   1.00
O20    O     0.97881   0.31882   0.40293   0.01267  Uiso   1.00
O21    O     0.44022   0.78024   0.00420   0.01267  Uiso   1.00
O22    O     0.66009   0.83458   0.02860   0.01267  Uiso   1.00
O23    O     0.38909   0.59218   0.99508   0.01267  Uiso   1.00
O24    O     0.30981   0.63442   0.09853   0.01267  Uiso   1.00
O25    O     0.90316   0.57132   0.44325   0.01267  Uiso   1.00
O26    O     0.04518   0.69436   0.41828   0.01267  Uiso   1.00
O27    O     0.58825   0.54530   0.09987   0.01267  Uiso   1.00
O28    O     0.65999   0.68118   0.09707   0.01267  Uiso   1.00
O29    O     0.65998   0.21976   0.49580   0.01267  Uiso   1.00
O30    O     0.82551   0.16542   0.47140   0.01267  Uiso   1.00
O31    O     0.79691   0.40782   0.50492   0.01267  Uiso   1.00
O32    O     0.67539   0.36558   0.40147   0.01267  Uiso   1.00
