data_NAJZII_charged
_audit_creation_date              2014-07-02
_audit_creation_method            'Materials Studio'
_symmetry_space_group_name_H-M    'P1'
_symmetry_Int_Tables_number       1
_symmetry_cell_setting            triclinic
loop_
_symmetry_equiv_pos_as_xyz
  x,y,z
_cell_length_a                    22.5920
_cell_length_b                    22.5920
_cell_length_c                    22.5920
_cell_angle_alpha                 90.0000
_cell_angle_beta                  90.0000
_cell_angle_gamma                 90.0000
loop_
_atom_site_label
_atom_site_type_symbol
_atom_site_fract_x
_atom_site_fract_y
_atom_site_fract_z
_atom_site_U_iso_or_equiv
_atom_site_adp_type
_atom_site_occupancy
Zn1    Zn    0.07483   0.55762   0.86592   0.01267  Uiso   1.00
Zn2    Zn    0.86592   0.42517   0.94238   0.01267  Uiso   1.00
Zn3    Zn    0.94238   0.63408   0.07483   0.01267  Uiso   1.00
Zn4    Zn    0.92517   0.44238   0.13408   0.01267  Uiso   1.00
Zn5    Zn    0.13408   0.57483   0.05762   0.01267  Uiso   1.00
Zn6    Zn    0.05762   0.36592   0.92517   0.01267  Uiso   1.00
Zn7    Zn    0.00000   0.50000   0.00000   0.01267  Uiso   1.00
P1     P     0.97768   0.45755   0.86373   0.01267  Uiso   1.00
P2     P     0.86373   0.52232   0.04245   0.01267  Uiso   1.00
P3     P     0.04245   0.63627   0.97768   0.01267  Uiso   1.00
P4     P     0.02232   0.54245   0.13627   0.01267  Uiso   1.00
P5     P     0.13627   0.47768   0.95755   0.01267  Uiso   1.00
P6     P     0.95755   0.36373   0.02232   0.01267  Uiso   1.00
H1     H     0.04560   0.55590   0.70240   0.01267  Uiso   1.00
H2     H     0.00100   0.58940   0.74380   0.01267  Uiso   1.00
H3     H     0.95200   0.52280   0.78930   0.01267  Uiso   1.00
H4     H     0.97660   0.46390   0.76170   0.01267  Uiso   1.00
H5     H     0.07240   0.46010   0.72790   0.01267  Uiso   1.00
H6     H     0.12310   0.49640   0.75830   0.01267  Uiso   1.00
H7     H     0.08970   0.44700   0.79390   0.01267  Uiso   1.00
H8     H     0.70240   0.45440   0.94410   0.01267  Uiso   1.00
H9     H     0.74380   0.49900   0.91060   0.01267  Uiso   1.00
H10    H     0.78930   0.54800   0.97720   0.01267  Uiso   1.00
H11    H     0.76170   0.52340   0.03610   0.01267  Uiso   1.00
H12    H     0.72790   0.42760   0.03990   0.01267  Uiso   1.00
H13    H     0.75830   0.37690   0.00360   0.01267  Uiso   1.00
H14    H     0.79390   0.41030   0.05300   0.01267  Uiso   1.00
H15    H     0.94410   0.79760   0.04560   0.01267  Uiso   1.00
H16    H     0.91060   0.75620   0.00100   0.01267  Uiso   1.00
H17    H     0.97720   0.71070   0.95200   0.01267  Uiso   1.00
H18    H     0.03610   0.73830   0.97660   0.01267  Uiso   1.00
H19    H     0.03990   0.77210   0.07240   0.01267  Uiso   1.00
H20    H     0.00360   0.74170   0.12310   0.01267  Uiso   1.00
H21    H     0.05300   0.70610   0.08970   0.01267  Uiso   1.00
H22    H     0.95440   0.44410   0.29760   0.01267  Uiso   1.00
H23    H     0.99900   0.41060   0.25620   0.01267  Uiso   1.00
H24    H     0.04800   0.47720   0.21070   0.01267  Uiso   1.00
H25    H     0.02340   0.53610   0.23830   0.01267  Uiso   1.00
H26    H     0.92760   0.53990   0.27210   0.01267  Uiso   1.00
H27    H     0.87690   0.50360   0.24170   0.01267  Uiso   1.00
H28    H     0.91030   0.55300   0.20610   0.01267  Uiso   1.00
H29    H     0.29760   0.54560   0.05590   0.01267  Uiso   1.00
H30    H     0.25620   0.50100   0.08940   0.01267  Uiso   1.00
H31    H     0.21070   0.45200   0.02280   0.01267  Uiso   1.00
H32    H     0.23830   0.47660   0.96390   0.01267  Uiso   1.00
H33    H     0.27210   0.57240   0.96010   0.01267  Uiso   1.00
H34    H     0.24170   0.62310   0.99640   0.01267  Uiso   1.00
H35    H     0.20610   0.58970   0.94700   0.01267  Uiso   1.00
H36    H     0.05590   0.20240   0.95440   0.01267  Uiso   1.00
H37    H     0.08940   0.24380   0.99900   0.01267  Uiso   1.00
H38    H     0.02280   0.28930   0.04800   0.01267  Uiso   1.00
H39    H     0.96390   0.26170   0.02340   0.01267  Uiso   1.00
H40    H     0.96010   0.22790   0.92760   0.01267  Uiso   1.00
H41    H     0.99640   0.25830   0.87690   0.01267  Uiso   1.00
H42    H     0.94700   0.29390   0.91030   0.01267  Uiso   1.00
C1     C     0.03980   0.57100   0.74220   0.01267  Uiso   1.00
C2     C     0.08710   0.61760   0.75550   0.01267  Uiso   1.00
C3     C     0.98280   0.49300   0.79260   0.01267  Uiso   1.00
C4     C     0.08560   0.47740   0.76440   0.01267  Uiso   1.00
C5     C     0.74220   0.46020   0.92900   0.01267  Uiso   1.00
C6     C     0.75550   0.41290   0.88240   0.01267  Uiso   1.00
C7     C     0.79260   0.51720   0.00700   0.01267  Uiso   1.00
C8     C     0.76440   0.41440   0.02260   0.01267  Uiso   1.00
C9     C     0.92900   0.75780   0.03980   0.01267  Uiso   1.00
C10    C     0.88240   0.74450   0.08710   0.01267  Uiso   1.00
C11    C     0.00700   0.70740   0.98280   0.01267  Uiso   1.00
C12    C     0.02260   0.73560   0.08560   0.01267  Uiso   1.00
C13    C     0.96020   0.42900   0.25780   0.01267  Uiso   1.00
C14    C     0.91290   0.38240   0.24450   0.01267  Uiso   1.00
C15    C     0.01720   0.50700   0.20740   0.01267  Uiso   1.00
C16    C     0.91440   0.52260   0.23560   0.01267  Uiso   1.00
C17    C     0.25780   0.53980   0.07100   0.01267  Uiso   1.00
C18    C     0.24450   0.58710   0.11760   0.01267  Uiso   1.00
C19    C     0.20740   0.48280   0.99300   0.01267  Uiso   1.00
C20    C     0.23560   0.58560   0.97740   0.01267  Uiso   1.00
C21    C     0.07100   0.24220   0.96020   0.01267  Uiso   1.00
C22    C     0.11760   0.25550   0.91290   0.01267  Uiso   1.00
C23    C     0.99300   0.29260   0.01720   0.01267  Uiso   1.00
C24    C     0.97740   0.26440   0.91440   0.01267  Uiso   1.00
N1     N     0.04190   0.52150   0.78460   0.01267  Uiso   1.00
N2     N     0.78460   0.45810   0.97850   0.01267  Uiso   1.00
N3     N     0.97850   0.71540   0.04190   0.01267  Uiso   1.00
N4     N     0.95810   0.47850   0.21540   0.01267  Uiso   1.00
N5     N     0.21540   0.54190   0.02150   0.01267  Uiso   1.00
N6     N     0.02150   0.28460   0.95810   0.01267  Uiso   1.00
O1     O     0.11270   0.61490   0.80370   0.01267  Uiso   1.00
O2     O     0.09410   0.65670   0.71680   0.01267  Uiso   1.00
O3     O     0.05140   0.62710   0.91160   0.01267  Uiso   1.00
O4     O     0.13900   0.51150   0.90020   0.01267  Uiso   1.00
O5     O     0.00510   0.50270   0.90650   0.01267  Uiso   1.00
O6     O     0.80370   0.38730   0.88510   0.01267  Uiso   1.00
O7     O     0.71680   0.40590   0.84330   0.01267  Uiso   1.00
O8     O     0.91160   0.44860   0.87290   0.01267  Uiso   1.00
O9     O     0.90020   0.36100   0.98850   0.01267  Uiso   1.00
O10    O     0.90650   0.49490   0.99730   0.01267  Uiso   1.00
O11    O     0.88510   0.69630   0.11270   0.01267  Uiso   1.00
O12    O     0.84330   0.78320   0.09410   0.01267  Uiso   1.00
O13    O     0.87290   0.58840   0.05140   0.01267  Uiso   1.00
O14    O     0.98850   0.59980   0.13900   0.01267  Uiso   1.00
O15    O     0.99730   0.59350   0.00510   0.01267  Uiso   1.00
O16    O     0.88730   0.38510   0.19630   0.01267  Uiso   1.00
O17    O     0.90590   0.34330   0.28320   0.01267  Uiso   1.00
O18    O     0.94860   0.37290   0.08840   0.01267  Uiso   1.00
O19    O     0.86100   0.48850   0.09980   0.01267  Uiso   1.00
O20    O     0.99490   0.49730   0.09350   0.01267  Uiso   1.00
O21    O     0.19630   0.61270   0.11490   0.01267  Uiso   1.00
O22    O     0.28320   0.59410   0.15670   0.01267  Uiso   1.00
O23    O     0.08840   0.55140   0.12710   0.01267  Uiso   1.00
O24    O     0.09980   0.63900   0.01150   0.01267  Uiso   1.00
O25    O     0.09350   0.50510   0.00270   0.01267  Uiso   1.00
O26    O     0.11490   0.30370   0.88730   0.01267  Uiso   1.00
O27    O     0.15670   0.21680   0.90590   0.01267  Uiso   1.00
O28    O     0.12710   0.41160   0.94860   0.01267  Uiso   1.00
O29    O     0.01150   0.40020   0.86100   0.01267  Uiso   1.00
O30    O     0.00270   0.40650   0.99490   0.01267  Uiso   1.00
Zn8    Zn    0.42517   0.94238   0.86592   0.01267  Uiso   1.00
Zn9    Zn    0.63408   0.07483   0.94238   0.01267  Uiso   1.00
Zn10   Zn    0.55762   0.86592   0.07483   0.01267  Uiso   1.00
Zn11   Zn    0.57483   0.05762   0.13408   0.01267  Uiso   1.00
Zn12   Zn    0.36592   0.92517   0.05762   0.01267  Uiso   1.00
Zn13   Zn    0.44238   0.13408   0.92517   0.01267  Uiso   1.00
Zn14   Zn    0.50000   0.00000   0.00000   0.01267  Uiso   1.00
P7     P     0.52232   0.04245   0.86373   0.01267  Uiso   1.00
P8     P     0.63627   0.97768   0.04245   0.01267  Uiso   1.00
P9     P     0.45755   0.86373   0.97768   0.01267  Uiso   1.00
P10    P     0.47768   0.95755   0.13627   0.01267  Uiso   1.00
P11    P     0.36373   0.02232   0.95755   0.01267  Uiso   1.00
P12    P     0.54245   0.13627   0.02232   0.01267  Uiso   1.00
H43    H     0.45440   0.94410   0.70240   0.01267  Uiso   1.00
H44    H     0.49900   0.91060   0.74380   0.01267  Uiso   1.00
H45    H     0.54800   0.97720   0.78930   0.01267  Uiso   1.00
H46    H     0.52340   0.03610   0.76170   0.01267  Uiso   1.00
H47    H     0.42760   0.03990   0.72790   0.01267  Uiso   1.00
H48    H     0.37690   0.00360   0.75830   0.01267  Uiso   1.00
H49    H     0.41030   0.05300   0.79390   0.01267  Uiso   1.00
H50    H     0.79760   0.04560   0.94410   0.01267  Uiso   1.00
H51    H     0.75620   0.00100   0.91060   0.01267  Uiso   1.00
H52    H     0.71070   0.95200   0.97720   0.01267  Uiso   1.00
H53    H     0.73830   0.97660   0.03610   0.01267  Uiso   1.00
H54    H     0.77210   0.07240   0.03990   0.01267  Uiso   1.00
H55    H     0.74170   0.12310   0.00360   0.01267  Uiso   1.00
H56    H     0.70610   0.08970   0.05300   0.01267  Uiso   1.00
H57    H     0.55590   0.70240   0.04560   0.01267  Uiso   1.00
H58    H     0.58940   0.74380   0.00100   0.01267  Uiso   1.00
H59    H     0.52280   0.78930   0.95200   0.01267  Uiso   1.00
H60    H     0.46390   0.76170   0.97660   0.01267  Uiso   1.00
H61    H     0.46010   0.72790   0.07240   0.01267  Uiso   1.00
H62    H     0.49640   0.75830   0.12310   0.01267  Uiso   1.00
H63    H     0.44700   0.79390   0.08970   0.01267  Uiso   1.00
H64    H     0.54560   0.05590   0.29760   0.01267  Uiso   1.00
H65    H     0.50100   0.08940   0.25620   0.01267  Uiso   1.00
H66    H     0.45200   0.02280   0.21070   0.01267  Uiso   1.00
H67    H     0.47660   0.96390   0.23830   0.01267  Uiso   1.00
H68    H     0.57240   0.96010   0.27210   0.01267  Uiso   1.00
H69    H     0.62310   0.99640   0.24170   0.01267  Uiso   1.00
H70    H     0.58970   0.94700   0.20610   0.01267  Uiso   1.00
H71    H     0.20240   0.95440   0.05590   0.01267  Uiso   1.00
H72    H     0.24380   0.99900   0.08940   0.01267  Uiso   1.00
H73    H     0.28930   0.04800   0.02280   0.01267  Uiso   1.00
H74    H     0.26170   0.02340   0.96390   0.01267  Uiso   1.00
H75    H     0.22790   0.92760   0.96010   0.01267  Uiso   1.00
H76    H     0.25830   0.87690   0.99640   0.01267  Uiso   1.00
H77    H     0.29390   0.91030   0.94700   0.01267  Uiso   1.00
H78    H     0.44410   0.29760   0.95440   0.01267  Uiso   1.00
H79    H     0.41060   0.25620   0.99900   0.01267  Uiso   1.00
H80    H     0.47720   0.21070   0.04800   0.01267  Uiso   1.00
H81    H     0.53610   0.23830   0.02340   0.01267  Uiso   1.00
H82    H     0.53990   0.27210   0.92760   0.01267  Uiso   1.00
H83    H     0.50360   0.24170   0.87690   0.01267  Uiso   1.00
H84    H     0.55300   0.20610   0.91030   0.01267  Uiso   1.00
C25    C     0.46020   0.92900   0.74220   0.01267  Uiso   1.00
C26    C     0.41290   0.88240   0.75550   0.01267  Uiso   1.00
C27    C     0.51720   0.00700   0.79260   0.01267  Uiso   1.00
C28    C     0.41440   0.02260   0.76440   0.01267  Uiso   1.00
C29    C     0.75780   0.03980   0.92900   0.01267  Uiso   1.00
C30    C     0.74450   0.08710   0.88240   0.01267  Uiso   1.00
C31    C     0.70740   0.98280   0.00700   0.01267  Uiso   1.00
C32    C     0.73560   0.08560   0.02260   0.01267  Uiso   1.00
C33    C     0.57100   0.74220   0.03980   0.01267  Uiso   1.00
C34    C     0.61760   0.75550   0.08710   0.01267  Uiso   1.00
C35    C     0.49300   0.79260   0.98280   0.01267  Uiso   1.00
C36    C     0.47740   0.76440   0.08560   0.01267  Uiso   1.00
C37    C     0.53980   0.07100   0.25780   0.01267  Uiso   1.00
C38    C     0.58710   0.11760   0.24450   0.01267  Uiso   1.00
C39    C     0.48280   0.99300   0.20740   0.01267  Uiso   1.00
C40    C     0.58560   0.97740   0.23560   0.01267  Uiso   1.00
C41    C     0.24220   0.96020   0.07100   0.01267  Uiso   1.00
C42    C     0.25550   0.91290   0.11760   0.01267  Uiso   1.00
C43    C     0.29260   0.01720   0.99300   0.01267  Uiso   1.00
C44    C     0.26440   0.91440   0.97740   0.01267  Uiso   1.00
C45    C     0.42900   0.25780   0.96020   0.01267  Uiso   1.00
C46    C     0.38240   0.24450   0.91290   0.01267  Uiso   1.00
C47    C     0.50700   0.20740   0.01720   0.01267  Uiso   1.00
C48    C     0.52260   0.23560   0.91440   0.01267  Uiso   1.00
N7     N     0.45810   0.97850   0.78460   0.01267  Uiso   1.00
N8     N     0.71540   0.04190   0.97850   0.01267  Uiso   1.00
N9     N     0.52150   0.78460   0.04190   0.01267  Uiso   1.00
N10    N     0.54190   0.02150   0.21540   0.01267  Uiso   1.00
N11    N     0.28460   0.95810   0.02150   0.01267  Uiso   1.00
N12    N     0.47850   0.21540   0.95810   0.01267  Uiso   1.00
O31    O     0.38730   0.88510   0.80370   0.01267  Uiso   1.00
O32    O     0.40590   0.84330   0.71680   0.01267  Uiso   1.00
O33    O     0.44860   0.87290   0.91160   0.01267  Uiso   1.00
O34    O     0.36100   0.98850   0.90020   0.01267  Uiso   1.00
O35    O     0.49490   0.99730   0.90650   0.01267  Uiso   1.00
O36    O     0.69630   0.11270   0.88510   0.01267  Uiso   1.00
O37    O     0.78320   0.09410   0.84330   0.01267  Uiso   1.00
O38    O     0.58840   0.05140   0.87290   0.01267  Uiso   1.00
O39    O     0.59980   0.13900   0.98850   0.01267  Uiso   1.00
O40    O     0.59350   0.00510   0.99730   0.01267  Uiso   1.00
O41    O     0.61490   0.80370   0.11270   0.01267  Uiso   1.00
O42    O     0.65670   0.71680   0.09410   0.01267  Uiso   1.00
O43    O     0.62710   0.91160   0.05140   0.01267  Uiso   1.00
O44    O     0.51150   0.90020   0.13900   0.01267  Uiso   1.00
O45    O     0.50270   0.90650   0.00510   0.01267  Uiso   1.00
O46    O     0.61270   0.11490   0.19630   0.01267  Uiso   1.00
O47    O     0.59410   0.15670   0.28320   0.01267  Uiso   1.00
O48    O     0.55140   0.12710   0.08840   0.01267  Uiso   1.00
O49    O     0.63900   0.01150   0.09980   0.01267  Uiso   1.00
O50    O     0.50510   0.00270   0.09350   0.01267  Uiso   1.00
O51    O     0.30370   0.88730   0.11490   0.01267  Uiso   1.00
O52    O     0.21680   0.90590   0.15670   0.01267  Uiso   1.00
O53    O     0.41160   0.94860   0.12710   0.01267  Uiso   1.00
O54    O     0.40020   0.86100   0.01150   0.01267  Uiso   1.00
O55    O     0.40650   0.99490   0.00270   0.01267  Uiso   1.00
O56    O     0.38510   0.19630   0.88730   0.01267  Uiso   1.00
O57    O     0.34330   0.28320   0.90590   0.01267  Uiso   1.00
O58    O     0.37290   0.08840   0.94860   0.01267  Uiso   1.00
O59    O     0.48850   0.09980   0.86100   0.01267  Uiso   1.00
O60    O     0.49730   0.09350   0.99490   0.01267  Uiso   1.00
Zn15   Zn    0.42517   0.55762   0.63408   0.01267  Uiso   1.00
Zn16   Zn    0.63408   0.42517   0.55762   0.01267  Uiso   1.00
Zn17   Zn    0.55762   0.63408   0.42517   0.01267  Uiso   1.00
Zn18   Zn    0.57483   0.44238   0.36592   0.01267  Uiso   1.00
Zn19   Zn    0.36592   0.57483   0.44238   0.01267  Uiso   1.00
Zn20   Zn    0.44238   0.36592   0.57483   0.01267  Uiso   1.00
Zn21   Zn    0.50000   0.50000   0.50000   0.01267  Uiso   1.00
P13    P     0.52232   0.45755   0.63627   0.01267  Uiso   1.00
P14    P     0.63627   0.52232   0.45755   0.01267  Uiso   1.00
P15    P     0.45755   0.63627   0.52232   0.01267  Uiso   1.00
P16    P     0.47768   0.54245   0.36373   0.01267  Uiso   1.00
P17    P     0.36373   0.47768   0.54245   0.01267  Uiso   1.00
P18    P     0.54245   0.36373   0.47768   0.01267  Uiso   1.00
H85    H     0.45440   0.55590   0.79760   0.01267  Uiso   1.00
H86    H     0.49900   0.58940   0.75620   0.01267  Uiso   1.00
H87    H     0.54800   0.52280   0.71070   0.01267  Uiso   1.00
H88    H     0.52340   0.46390   0.73830   0.01267  Uiso   1.00
H89    H     0.42760   0.46010   0.77210   0.01267  Uiso   1.00
H90    H     0.37690   0.49640   0.74170   0.01267  Uiso   1.00
H91    H     0.41030   0.44700   0.70610   0.01267  Uiso   1.00
H92    H     0.79760   0.45440   0.55590   0.01267  Uiso   1.00
H93    H     0.75620   0.49900   0.58940   0.01267  Uiso   1.00
H94    H     0.71070   0.54800   0.52280   0.01267  Uiso   1.00
H95    H     0.73830   0.52340   0.46390   0.01267  Uiso   1.00
H96    H     0.77210   0.42760   0.46010   0.01267  Uiso   1.00
H97    H     0.74170   0.37690   0.49640   0.01267  Uiso   1.00
H98    H     0.70610   0.41030   0.44700   0.01267  Uiso   1.00
H99    H     0.55590   0.79760   0.45440   0.01267  Uiso   1.00
H100   H     0.58940   0.75620   0.49900   0.01267  Uiso   1.00
H101   H     0.52280   0.71070   0.54800   0.01267  Uiso   1.00
H102   H     0.46390   0.73830   0.52340   0.01267  Uiso   1.00
H103   H     0.46010   0.77210   0.42760   0.01267  Uiso   1.00
H104   H     0.49640   0.74170   0.37690   0.01267  Uiso   1.00
H105   H     0.44700   0.70610   0.41030   0.01267  Uiso   1.00
H106   H     0.54560   0.44410   0.20240   0.01267  Uiso   1.00
H107   H     0.50100   0.41060   0.24380   0.01267  Uiso   1.00
H108   H     0.45200   0.47720   0.28930   0.01267  Uiso   1.00
H109   H     0.47660   0.53610   0.26170   0.01267  Uiso   1.00
H110   H     0.57240   0.53990   0.22790   0.01267  Uiso   1.00
H111   H     0.62310   0.50360   0.25830   0.01267  Uiso   1.00
H112   H     0.58970   0.55300   0.29390   0.01267  Uiso   1.00
H113   H     0.20240   0.54560   0.44410   0.01267  Uiso   1.00
H114   H     0.24380   0.50100   0.41060   0.01267  Uiso   1.00
H115   H     0.28930   0.45200   0.47720   0.01267  Uiso   1.00
H116   H     0.26170   0.47660   0.53610   0.01267  Uiso   1.00
H117   H     0.22790   0.57240   0.53990   0.01267  Uiso   1.00
H118   H     0.25830   0.62310   0.50360   0.01267  Uiso   1.00
H119   H     0.29390   0.58970   0.55300   0.01267  Uiso   1.00
H120   H     0.44410   0.20240   0.54560   0.01267  Uiso   1.00
H121   H     0.41060   0.24380   0.50100   0.01267  Uiso   1.00
H122   H     0.47720   0.28930   0.45200   0.01267  Uiso   1.00
H123   H     0.53610   0.26170   0.47660   0.01267  Uiso   1.00
H124   H     0.53990   0.22790   0.57240   0.01267  Uiso   1.00
H125   H     0.50360   0.25830   0.62310   0.01267  Uiso   1.00
H126   H     0.55300   0.29390   0.58970   0.01267  Uiso   1.00
C49    C     0.46020   0.57100   0.75780   0.01267  Uiso   1.00
C50    C     0.41290   0.61760   0.74450   0.01267  Uiso   1.00
C51    C     0.51720   0.49300   0.70740   0.01267  Uiso   1.00
C52    C     0.41440   0.47740   0.73560   0.01267  Uiso   1.00
C53    C     0.75780   0.46020   0.57100   0.01267  Uiso   1.00
C54    C     0.74450   0.41290   0.61760   0.01267  Uiso   1.00
C55    C     0.70740   0.51720   0.49300   0.01267  Uiso   1.00
C56    C     0.73560   0.41440   0.47740   0.01267  Uiso   1.00
C57    C     0.57100   0.75780   0.46020   0.01267  Uiso   1.00
C58    C     0.61760   0.74450   0.41290   0.01267  Uiso   1.00
C59    C     0.49300   0.70740   0.51720   0.01267  Uiso   1.00
C60    C     0.47740   0.73560   0.41440   0.01267  Uiso   1.00
C61    C     0.53980   0.42900   0.24220   0.01267  Uiso   1.00
C62    C     0.58710   0.38240   0.25550   0.01267  Uiso   1.00
C63    C     0.48280   0.50700   0.29260   0.01267  Uiso   1.00
C64    C     0.58560   0.52260   0.26440   0.01267  Uiso   1.00
C65    C     0.24220   0.53980   0.42900   0.01267  Uiso   1.00
C66    C     0.25550   0.58710   0.38240   0.01267  Uiso   1.00
C67    C     0.29260   0.48280   0.50700   0.01267  Uiso   1.00
C68    C     0.26440   0.58560   0.52260   0.01267  Uiso   1.00
C69    C     0.42900   0.24220   0.53980   0.01267  Uiso   1.00
C70    C     0.38240   0.25550   0.58710   0.01267  Uiso   1.00
C71    C     0.50700   0.29260   0.48280   0.01267  Uiso   1.00
C72    C     0.52260   0.26440   0.58560   0.01267  Uiso   1.00
N13    N     0.45810   0.52150   0.71540   0.01267  Uiso   1.00
N14    N     0.71540   0.45810   0.52150   0.01267  Uiso   1.00
N15    N     0.52150   0.71540   0.45810   0.01267  Uiso   1.00
N16    N     0.54190   0.47850   0.28460   0.01267  Uiso   1.00
N17    N     0.28460   0.54190   0.47850   0.01267  Uiso   1.00
N18    N     0.47850   0.28460   0.54190   0.01267  Uiso   1.00
O61    O     0.38730   0.61490   0.69630   0.01267  Uiso   1.00
O62    O     0.40590   0.65670   0.78320   0.01267  Uiso   1.00
O63    O     0.44860   0.62710   0.58840   0.01267  Uiso   1.00
O64    O     0.36100   0.51150   0.59980   0.01267  Uiso   1.00
O65    O     0.49490   0.50270   0.59350   0.01267  Uiso   1.00
O66    O     0.69630   0.38730   0.61490   0.01267  Uiso   1.00
O67    O     0.78320   0.40590   0.65670   0.01267  Uiso   1.00
O68    O     0.58840   0.44860   0.62710   0.01267  Uiso   1.00
O69    O     0.59980   0.36100   0.51150   0.01267  Uiso   1.00
O70    O     0.59350   0.49490   0.50270   0.01267  Uiso   1.00
O71    O     0.61490   0.69630   0.38730   0.01267  Uiso   1.00
O72    O     0.65670   0.78320   0.40590   0.01267  Uiso   1.00
O73    O     0.62710   0.58840   0.44860   0.01267  Uiso   1.00
O74    O     0.51150   0.59980   0.36100   0.01267  Uiso   1.00
O75    O     0.50270   0.59350   0.49490   0.01267  Uiso   1.00
O76    O     0.61270   0.38510   0.30370   0.01267  Uiso   1.00
O77    O     0.59410   0.34330   0.21680   0.01267  Uiso   1.00
O78    O     0.55140   0.37290   0.41160   0.01267  Uiso   1.00
O79    O     0.63900   0.48850   0.40020   0.01267  Uiso   1.00
O80    O     0.50510   0.49730   0.40650   0.01267  Uiso   1.00
O81    O     0.30370   0.61270   0.38510   0.01267  Uiso   1.00
O82    O     0.21680   0.59410   0.34330   0.01267  Uiso   1.00
O83    O     0.41160   0.55140   0.37290   0.01267  Uiso   1.00
O84    O     0.40020   0.63900   0.48850   0.01267  Uiso   1.00
O85    O     0.40650   0.50510   0.49730   0.01267  Uiso   1.00
O86    O     0.38510   0.30370   0.61270   0.01267  Uiso   1.00
O87    O     0.34330   0.21680   0.59410   0.01267  Uiso   1.00
O88    O     0.37290   0.41160   0.55140   0.01267  Uiso   1.00
O89    O     0.48850   0.40020   0.63900   0.01267  Uiso   1.00
O90    O     0.49730   0.40650   0.50510   0.01267  Uiso   1.00
Zn22   Zn    0.07483   0.94238   0.63408   0.01267  Uiso   1.00
Zn23   Zn    0.86592   0.07483   0.55762   0.01267  Uiso   1.00
Zn24   Zn    0.94238   0.86592   0.42517   0.01267  Uiso   1.00
Zn25   Zn    0.92517   0.05762   0.36592   0.01267  Uiso   1.00
Zn26   Zn    0.13408   0.92517   0.44238   0.01267  Uiso   1.00
Zn27   Zn    0.05762   0.13408   0.57483   0.01267  Uiso   1.00
Zn28   Zn    0.00000   0.00000   0.50000   0.01267  Uiso   1.00
P19    P     0.97768   0.04245   0.63627   0.01267  Uiso   1.00
P20    P     0.86373   0.97768   0.45755   0.01267  Uiso   1.00
P21    P     0.04245   0.86373   0.52232   0.01267  Uiso   1.00
P22    P     0.02232   0.95755   0.36373   0.01267  Uiso   1.00
P23    P     0.13627   0.02232   0.54245   0.01267  Uiso   1.00
P24    P     0.95755   0.13627   0.47768   0.01267  Uiso   1.00
H127   H     0.04560   0.94410   0.79760   0.01267  Uiso   1.00
H128   H     0.00100   0.91060   0.75620   0.01267  Uiso   1.00
H129   H     0.95200   0.97720   0.71070   0.01267  Uiso   1.00
H130   H     0.97660   0.03610   0.73830   0.01267  Uiso   1.00
H131   H     0.07240   0.03990   0.77210   0.01267  Uiso   1.00
H132   H     0.12310   0.00360   0.74170   0.01267  Uiso   1.00
H133   H     0.08970   0.05300   0.70610   0.01267  Uiso   1.00
H134   H     0.70240   0.04560   0.55590   0.01267  Uiso   1.00
H135   H     0.74380   0.00100   0.58940   0.01267  Uiso   1.00
H136   H     0.78930   0.95200   0.52280   0.01267  Uiso   1.00
H137   H     0.76170   0.97660   0.46390   0.01267  Uiso   1.00
H138   H     0.72790   0.07240   0.46010   0.01267  Uiso   1.00
H139   H     0.75830   0.12310   0.49640   0.01267  Uiso   1.00
H140   H     0.79390   0.08970   0.44700   0.01267  Uiso   1.00
H141   H     0.94410   0.70240   0.45440   0.01267  Uiso   1.00
H142   H     0.91060   0.74380   0.49900   0.01267  Uiso   1.00
H143   H     0.97720   0.78930   0.54800   0.01267  Uiso   1.00
H144   H     0.03610   0.76170   0.52340   0.01267  Uiso   1.00
H145   H     0.03990   0.72790   0.42760   0.01267  Uiso   1.00
H146   H     0.00360   0.75830   0.37690   0.01267  Uiso   1.00
H147   H     0.05300   0.79390   0.41030   0.01267  Uiso   1.00
H148   H     0.95440   0.05590   0.20240   0.01267  Uiso   1.00
H149   H     0.99900   0.08940   0.24380   0.01267  Uiso   1.00
H150   H     0.04800   0.02280   0.28930   0.01267  Uiso   1.00
H151   H     0.02340   0.96390   0.26170   0.01267  Uiso   1.00
H152   H     0.92760   0.96010   0.22790   0.01267  Uiso   1.00
H153   H     0.87690   0.99640   0.25830   0.01267  Uiso   1.00
H154   H     0.91030   0.94700   0.29390   0.01267  Uiso   1.00
H155   H     0.29760   0.95440   0.44410   0.01267  Uiso   1.00
H156   H     0.25620   0.99900   0.41060   0.01267  Uiso   1.00
H157   H     0.21070   0.04800   0.47720   0.01267  Uiso   1.00
H158   H     0.23830   0.02340   0.53610   0.01267  Uiso   1.00
H159   H     0.27210   0.92760   0.53990   0.01267  Uiso   1.00
H160   H     0.24170   0.87690   0.50360   0.01267  Uiso   1.00
H161   H     0.20610   0.91030   0.55300   0.01267  Uiso   1.00
H162   H     0.05590   0.29760   0.54560   0.01267  Uiso   1.00
H163   H     0.08940   0.25620   0.50100   0.01267  Uiso   1.00
H164   H     0.02280   0.21070   0.45200   0.01267  Uiso   1.00
H165   H     0.96390   0.23830   0.47660   0.01267  Uiso   1.00
H166   H     0.96010   0.27210   0.57240   0.01267  Uiso   1.00
H167   H     0.99640   0.24170   0.62310   0.01267  Uiso   1.00
H168   H     0.94700   0.20610   0.58970   0.01267  Uiso   1.00
C73    C     0.03980   0.92900   0.75780   0.01267  Uiso   1.00
C74    C     0.08710   0.88240   0.74450   0.01267  Uiso   1.00
C75    C     0.98280   0.00700   0.70740   0.01267  Uiso   1.00
C76    C     0.08560   0.02260   0.73560   0.01267  Uiso   1.00
C77    C     0.74220   0.03980   0.57100   0.01267  Uiso   1.00
C78    C     0.75550   0.08710   0.61760   0.01267  Uiso   1.00
C79    C     0.79260   0.98280   0.49300   0.01267  Uiso   1.00
C80    C     0.76440   0.08560   0.47740   0.01267  Uiso   1.00
C81    C     0.92900   0.74220   0.46020   0.01267  Uiso   1.00
C82    C     0.88240   0.75550   0.41290   0.01267  Uiso   1.00
C83    C     0.00700   0.79260   0.51720   0.01267  Uiso   1.00
C84    C     0.02260   0.76440   0.41440   0.01267  Uiso   1.00
C85    C     0.96020   0.07100   0.24220   0.01267  Uiso   1.00
C86    C     0.91290   0.11760   0.25550   0.01267  Uiso   1.00
C87    C     0.01720   0.99300   0.29260   0.01267  Uiso   1.00
C88    C     0.91440   0.97740   0.26440   0.01267  Uiso   1.00
C89    C     0.25780   0.96020   0.42900   0.01267  Uiso   1.00
C90    C     0.24450   0.91290   0.38240   0.01267  Uiso   1.00
C91    C     0.20740   0.01720   0.50700   0.01267  Uiso   1.00
C92    C     0.23560   0.91440   0.52260   0.01267  Uiso   1.00
C93    C     0.07100   0.25780   0.53980   0.01267  Uiso   1.00
C94    C     0.11760   0.24450   0.58710   0.01267  Uiso   1.00
C95    C     0.99300   0.20740   0.48280   0.01267  Uiso   1.00
C96    C     0.97740   0.23560   0.58560   0.01267  Uiso   1.00
N19    N     0.04190   0.97850   0.71540   0.01267  Uiso   1.00
N20    N     0.78460   0.04190   0.52150   0.01267  Uiso   1.00
N21    N     0.97850   0.78460   0.45810   0.01267  Uiso   1.00
N22    N     0.95810   0.02150   0.28460   0.01267  Uiso   1.00
N23    N     0.21540   0.95810   0.47850   0.01267  Uiso   1.00
N24    N     0.02150   0.21540   0.54190   0.01267  Uiso   1.00
O91    O     0.11270   0.88510   0.69630   0.01267  Uiso   1.00
O92    O     0.09410   0.84330   0.78320   0.01267  Uiso   1.00
O93    O     0.05140   0.87290   0.58840   0.01267  Uiso   1.00
O94    O     0.13900   0.98850   0.59980   0.01267  Uiso   1.00
O95    O     0.00510   0.99730   0.59350   0.01267  Uiso   1.00
O96    O     0.80370   0.11270   0.61490   0.01267  Uiso   1.00
O97    O     0.71680   0.09410   0.65670   0.01267  Uiso   1.00
O98    O     0.91160   0.05140   0.62710   0.01267  Uiso   1.00
O99    O     0.90020   0.13900   0.51150   0.01267  Uiso   1.00
O100   O     0.90650   0.00510   0.50270   0.01267  Uiso   1.00
O101   O     0.88510   0.80370   0.38730   0.01267  Uiso   1.00
O102   O     0.84330   0.71680   0.40590   0.01267  Uiso   1.00
O103   O     0.87290   0.91160   0.44860   0.01267  Uiso   1.00
O104   O     0.98850   0.90020   0.36100   0.01267  Uiso   1.00
O105   O     0.99730   0.90650   0.49490   0.01267  Uiso   1.00
O106   O     0.88730   0.11490   0.30370   0.01267  Uiso   1.00
O107   O     0.90590   0.15670   0.21680   0.01267  Uiso   1.00
O108   O     0.94860   0.12710   0.41160   0.01267  Uiso   1.00
O109   O     0.86100   0.01150   0.40020   0.01267  Uiso   1.00
O110   O     0.99490   0.00270   0.40650   0.01267  Uiso   1.00
O111   O     0.19630   0.88730   0.38510   0.01267  Uiso   1.00
O112   O     0.28320   0.90590   0.34330   0.01267  Uiso   1.00
O113   O     0.08840   0.94860   0.37290   0.01267  Uiso   1.00
O114   O     0.09980   0.86100   0.48850   0.01267  Uiso   1.00
O115   O     0.09350   0.99490   0.49730   0.01267  Uiso   1.00
O116   O     0.11490   0.19630   0.61270   0.01267  Uiso   1.00
O117   O     0.15670   0.28320   0.59410   0.01267  Uiso   1.00
O118   O     0.12710   0.08840   0.55140   0.01267  Uiso   1.00
O119   O     0.01150   0.09980   0.63900   0.01267  Uiso   1.00
O120   O     0.00270   0.09350   0.50510   0.01267  Uiso   1.00
