data_NARTIL_clean
_audit_creation_date              2014-07-02
_audit_creation_method            'Materials Studio'
_symmetry_space_group_name_H-M    'P1'
_symmetry_Int_Tables_number       1
_symmetry_cell_setting            triclinic
loop_
_symmetry_equiv_pos_as_xyz
  x,y,z
_cell_length_a                    11.8640
_cell_length_b                    12.7537
_cell_length_c                    13.6059
_cell_angle_alpha                 117.9490
_cell_angle_beta                  107.6490
_cell_angle_gamma                 90.0000
loop_
_atom_site_label
_atom_site_type_symbol
_atom_site_fract_x
_atom_site_fract_y
_atom_site_fract_z
_atom_site_U_iso_or_equiv
_atom_site_adp_type
_atom_site_occupancy
Co1    Co    0.00000   1.00000   0.50000   0.01267  Uiso   1.00
Co2    Co    0.50000   0.50000   0.50000   0.01267  Uiso   1.00
H1     H     0.20240   0.93030   0.38540   0.01267  Uiso   1.00
H2     H     0.53710   0.85390   0.48980   0.01267  Uiso   1.00
H3     H     0.64870   0.82170   0.37000   0.01267  Uiso   1.00
H4     H     0.55670   0.74740   0.17160   0.01267  Uiso   1.00
H5     H     0.35020   0.70890   0.09000   0.01267  Uiso   1.00
H6     H     0.23630   0.74580   0.21060   0.01267  Uiso   1.00
H7     H     0.17170   0.84640   0.61140   0.01267  Uiso   1.00
H8     H     0.88320   0.73540   0.30020   0.01267  Uiso   1.00
H9     H     0.77190   0.62620   0.10380   0.01267  Uiso   1.00
H10    H     0.83610   0.91390   0.07280   0.01267  Uiso   1.00
H11    H     0.94480   0.01560   0.27000   0.01267  Uiso   1.00
H12    H     0.29760   0.54490   0.61460   0.01267  Uiso   1.00
H13    H     0.96290   0.36410   0.51020   0.01267  Uiso   1.00
H14    H     0.85130   0.45170   0.63000   0.01267  Uiso   1.00
H15    H     0.94330   0.57580   0.82840   0.01267  Uiso   1.00
H16    H     0.14980   0.61890   0.91000   0.01267  Uiso   1.00
H17    H     0.26370   0.53520   0.78940   0.01267  Uiso   1.00
H18    H     0.32830   0.23500   0.38860   0.01267  Uiso   1.00
H19    H     0.61680   0.43520   0.69980   0.01267  Uiso   1.00
H20    H     0.72810   0.52240   0.89620   0.01267  Uiso   1.00
H21    H     0.66390   0.84110   0.92720   0.01267  Uiso   1.00
H22    H     0.55520   0.74560   0.73000   0.01267  Uiso   1.00
H23    H     0.79760   0.06970   0.61460   0.01267  Uiso   1.00
H24    H     0.46290   0.14610   0.51020   0.01267  Uiso   1.00
H25    H     0.35130   0.17830   0.63000   0.01267  Uiso   1.00
H26    H     0.44330   0.25260   0.82840   0.01267  Uiso   1.00
H27    H     0.64980   0.29110   0.91000   0.01267  Uiso   1.00
H28    H     0.76370   0.25420   0.78940   0.01267  Uiso   1.00
H29    H     0.82830   0.15360   0.38860   0.01267  Uiso   1.00
H30    H     0.11680   0.26460   0.69980   0.01267  Uiso   1.00
H31    H     0.22810   0.37380   0.89620   0.01267  Uiso   1.00
H32    H     0.16390   0.08610   0.92720   0.01267  Uiso   1.00
H33    H     0.05520   0.98440   0.73000   0.01267  Uiso   1.00
H34    H     0.70240   0.45510   0.38540   0.01267  Uiso   1.00
H35    H     0.03710   0.63590   0.48980   0.01267  Uiso   1.00
H36    H     0.14870   0.54830   0.37000   0.01267  Uiso   1.00
H37    H     0.05670   0.42420   0.17160   0.01267  Uiso   1.00
H38    H     0.85020   0.38110   0.09000   0.01267  Uiso   1.00
H39    H     0.73630   0.46480   0.21060   0.01267  Uiso   1.00
H40    H     0.67170   0.76500   0.61140   0.01267  Uiso   1.00
H41    H     0.38320   0.56480   0.30020   0.01267  Uiso   1.00
H42    H     0.27190   0.47760   0.10380   0.01267  Uiso   1.00
H43    H     0.33610   0.15890   0.07280   0.01267  Uiso   1.00
H44    H     0.44480   0.25440   0.27000   0.01267  Uiso   1.00
C1     C     0.49870   0.82588   0.40936   0.01267  Uiso   1.00
C2     C     0.56530   0.80546   0.33752   0.01267  Uiso   1.00
C3     C     0.51070   0.76190   0.21980   0.01267  Uiso   1.00
C4     C     0.38760   0.73899   0.17098   0.01267  Uiso   1.00
C5     C     0.31960   0.76104   0.24328   0.01267  Uiso   1.00
C6     C     0.37460   0.80519   0.36292   0.01267  Uiso   1.00
C7     C     0.30000   0.83107   0.43840   0.01267  Uiso   1.00
C8     C     0.19850   0.85291   0.55668   0.01267  Uiso   1.00
C9     C     0.29170   0.79837   0.52152   0.01267  Uiso   1.00
C10    C     0.35010   0.71268   0.55782   0.01267  Uiso   1.00
C11    C     0.87260   0.77266   0.25412   0.01267  Uiso   1.00
C12    C     0.80550   0.70599   0.13558   0.01267  Uiso   1.00
C13    C     0.78780   0.75779   0.06378   0.01267  Uiso   1.00
C14    C     0.84310   0.87538   0.11736   0.01267  Uiso   1.00
C15    C     0.90870   0.93624   0.23648   0.01267  Uiso   1.00
C16    C     0.00130   0.41652   0.59064   0.01267  Uiso   1.00
C17    C     0.93470   0.46794   0.66248   0.01267  Uiso   1.00
C18    C     0.98930   0.54210   0.78020   0.01267  Uiso   1.00
C19    C     0.11240   0.56801   0.82902   0.01267  Uiso   1.00
C20    C     0.18040   0.51776   0.75672   0.01267  Uiso   1.00
C21    C     0.12540   0.44227   0.63708   0.01267  Uiso   1.00
C22    C     0.20000   0.39267   0.56160   0.01267  Uiso   1.00
C23    C     0.30150   0.29623   0.44332   0.01267  Uiso   1.00
C24    C     0.20830   0.27685   0.47848   0.01267  Uiso   1.00
C25    C     0.14990   0.15486   0.44218   0.01267  Uiso   1.00
C26    C     0.62740   0.51854   0.74588   0.01267  Uiso   1.00
C27    C     0.69450   0.57041   0.86442   0.01267  Uiso   1.00
C28    C     0.71220   0.69401   0.93622   0.01267  Uiso   1.00
C29    C     0.65690   0.75802   0.88264   0.01267  Uiso   1.00
C30    C     0.59130   0.69976   0.76352   0.01267  Uiso   1.00
C31    C     0.50130   0.17412   0.59064   0.01267  Uiso   1.00
C32    C     0.43470   0.19454   0.66248   0.01267  Uiso   1.00
C33    C     0.48930   0.23810   0.78020   0.01267  Uiso   1.00
C34    C     0.61240   0.26101   0.82902   0.01267  Uiso   1.00
C35    C     0.68040   0.23896   0.75672   0.01267  Uiso   1.00
C36    C     0.62540   0.19481   0.63708   0.01267  Uiso   1.00
C37    C     0.70000   0.16893   0.56160   0.01267  Uiso   1.00
C38    C     0.80150   0.14709   0.44332   0.01267  Uiso   1.00
C39    C     0.70830   0.20163   0.47848   0.01267  Uiso   1.00
C40    C     0.64990   0.28732   0.44218   0.01267  Uiso   1.00
C41    C     0.12740   0.22734   0.74588   0.01267  Uiso   1.00
C42    C     0.19450   0.29401   0.86442   0.01267  Uiso   1.00
C43    C     0.21220   0.24221   0.93622   0.01267  Uiso   1.00
C44    C     0.15690   0.12462   0.88264   0.01267  Uiso   1.00
C45    C     0.09130   0.06376   0.76352   0.01267  Uiso   1.00
C46    C     0.99870   0.58348   0.40936   0.01267  Uiso   1.00
C47    C     0.06530   0.53206   0.33752   0.01267  Uiso   1.00
C48    C     0.01070   0.45790   0.21980   0.01267  Uiso   1.00
C49    C     0.88760   0.43199   0.17098   0.01267  Uiso   1.00
C50    C     0.81960   0.48224   0.24328   0.01267  Uiso   1.00
C51    C     0.87460   0.55773   0.36292   0.01267  Uiso   1.00
C52    C     0.80000   0.60733   0.43840   0.01267  Uiso   1.00
C53    C     0.69850   0.70377   0.55668   0.01267  Uiso   1.00
C54    C     0.79170   0.72315   0.52152   0.01267  Uiso   1.00
C55    C     0.85010   0.84514   0.55782   0.01267  Uiso   1.00
C56    C     0.37260   0.48146   0.25412   0.01267  Uiso   1.00
C57    C     0.30550   0.42959   0.13558   0.01267  Uiso   1.00
C58    C     0.28780   0.30599   0.06378   0.01267  Uiso   1.00
C59    C     0.34310   0.24198   0.11736   0.01267  Uiso   1.00
C60    C     0.40870   0.30024   0.23648   0.01267  Uiso   1.00
N1     N     0.15266   0.91492   0.50350   0.01267  Uiso   1.00
N2     N     0.21533   0.89947   0.43120   0.01267  Uiso   1.00
N3     N     0.92340   0.88774   0.30664   0.01267  Uiso   1.00
N4     N     0.34734   0.41142   0.49650   0.01267  Uiso   1.00
N5     N     0.28467   0.46827   0.56880   0.01267  Uiso   1.00
N6     N     0.57660   0.58110   0.69336   0.01267  Uiso   1.00
N7     N     0.84734   0.08508   0.49650   0.01267  Uiso   1.00
N8     N     0.78467   0.10053   0.56880   0.01267  Uiso   1.00
N9     N     0.07660   0.11226   0.69336   0.01267  Uiso   1.00
N10    N     0.65266   0.58858   0.50350   0.01267  Uiso   1.00
N11    N     0.71533   0.53173   0.43120   0.01267  Uiso   1.00
N12    N     0.42340   0.41890   0.30664   0.01267  Uiso   1.00
O1     O     0.42104   0.65430   0.50974   0.01267  Uiso   1.00
O2     O     0.31928   0.70263   0.63448   0.01267  Uiso   1.00
O3     O     0.07896   0.14456   0.49026   0.01267  Uiso   1.00
O4     O     0.18072   0.06815   0.36552   0.01267  Uiso   1.00
O5     O     0.57896   0.34570   0.49026   0.01267  Uiso   1.00
O6     O     0.68072   0.29737   0.36552   0.01267  Uiso   1.00
O7     O     0.92104   0.85544   0.50974   0.01267  Uiso   1.00
O8     O     0.81928   0.93185   0.63448   0.01267  Uiso   1.00
