data_NASCIV_clean
_audit_creation_date              2014-07-02
_audit_creation_method            'Materials Studio'
_symmetry_space_group_name_H-M    'P1'
_symmetry_Int_Tables_number       1
_symmetry_cell_setting            triclinic
loop_
_symmetry_equiv_pos_as_xyz
  x,y,z
_cell_length_a                    9.5189
_cell_length_b                    13.7420
_cell_length_c                    13.7420
_cell_angle_alpha                 83.1106
_cell_angle_beta                  69.7362
_cell_angle_gamma                 69.7362
loop_
_atom_site_label
_atom_site_type_symbol
_atom_site_fract_x
_atom_site_fract_y
_atom_site_fract_z
_atom_site_U_iso_or_equiv
_atom_site_adp_type
_atom_site_occupancy
Cd1    Cd    0.89291   0.40939   0.15655   0.01267  Uiso   1.00
Cd2    Cd    0.45885   0.59061   0.84345   0.01267  Uiso   1.00
Cd3    Cd    0.95054   0.15655   0.59061   0.01267  Uiso   1.00
Cd4    Cd    0.69770   0.84345   0.40939   0.01267  Uiso   1.00
Cd5    Cd    0.95885   0.84345   0.59061   0.01267  Uiso   1.00
Cd6    Cd    0.39291   0.15655   0.40939   0.01267  Uiso   1.00
Cd7    Cd    0.19770   0.40939   0.84345   0.01267  Uiso   1.00
Cd8    Cd    0.45054   0.59061   0.15655   0.01267  Uiso   1.00
H1     H     0.88620   0.59290   0.31130   0.01267  Uiso   1.00
H2     H     0.28300   0.08680   0.84720   0.01267  Uiso   1.00
H3     H     0.79040   0.40710   0.68870   0.01267  Uiso   1.00
H4     H     0.21700   0.91320   0.15280   0.01267  Uiso   1.00
H5     H     0.80250   0.31130   0.40710   0.01267  Uiso   1.00
H6     H     0.86980   0.84720   0.91320   0.01267  Uiso   1.00
H7     H     0.52090   0.68870   0.59290   0.01267  Uiso   1.00
H8     H     0.63020   0.15280   0.08680   0.01267  Uiso   1.00
H9     H     0.29040   0.68870   0.40710   0.01267  Uiso   1.00
H10    H     0.71700   0.15280   0.91320   0.01267  Uiso   1.00
H11    H     0.38620   0.31130   0.59290   0.01267  Uiso   1.00
H12    H     0.78300   0.84720   0.08680   0.01267  Uiso   1.00
H13    H     0.02090   0.59290   0.68870   0.01267  Uiso   1.00
H14    H     0.13020   0.08680   0.15280   0.01267  Uiso   1.00
H15    H     0.30250   0.40710   0.31130   0.01267  Uiso   1.00
H16    H     0.36980   0.91320   0.84720   0.01267  Uiso   1.00
H17    H     0.13740   0.50000   0.22520   0.01267  Uiso   1.00
H18    H     0.86260   0.50000   0.77480   0.01267  Uiso   1.00
H19    H     0.63740   0.22520   0.50000   0.01267  Uiso   1.00
H20    H     0.36260   0.77480   0.50000   0.01267  Uiso   1.00
C1     C     0.79230   0.62070   0.29310   0.01267  Uiso   1.00
C2     C     0.26890   0.05080   0.91140   0.01267  Uiso   1.00
C3     C     0.70610   0.37930   0.70690   0.01267  Uiso   1.00
C4     C     0.23110   0.94920   0.08860   0.01267  Uiso   1.00
C5     C     0.91460   0.29310   0.37930   0.01267  Uiso   1.00
C6     C     0.81970   0.91140   0.94920   0.01267  Uiso   1.00
C7     C     0.58700   0.70690   0.62070   0.01267  Uiso   1.00
C8     C     0.68030   0.08860   0.05080   0.01267  Uiso   1.00
C9     C     0.20610   0.70690   0.37930   0.01267  Uiso   1.00
C10    C     0.73110   0.08860   0.94920   0.01267  Uiso   1.00
C11    C     0.29230   0.29310   0.62070   0.01267  Uiso   1.00
C12    C     0.76890   0.91140   0.05080   0.01267  Uiso   1.00
C13    C     0.08700   0.62070   0.70690   0.01267  Uiso   1.00
C14    C     0.18030   0.05080   0.08860   0.01267  Uiso   1.00
C15    C     0.41460   0.37930   0.29310   0.01267  Uiso   1.00
C16    C     0.31970   0.94920   0.91140   0.01267  Uiso   1.00
C17    C     0.17430   0.50000   0.15140   0.01267  Uiso   1.00
C18    C     0.82570   0.50000   0.84860   0.01267  Uiso   1.00
C19    C     0.67430   0.15140   0.50000   0.01267  Uiso   1.00
C20    C     0.32570   0.84860   0.50000   0.01267  Uiso   1.00
C21    C     0.13940   0.22120   0.00000   0.01267  Uiso   1.00
C22    C     0.19770   0.10460   0.00000   0.01267  Uiso   1.00
C23    C     0.36060   0.77880   0.00000   0.01267  Uiso   1.00
C24    C     0.30230   0.89540  -0.00000   0.01267  Uiso   1.00
C25    C     0.86060   0.00000   0.77880   0.01267  Uiso   1.00
C26    C     0.80230   0.00000   0.89540   0.01267  Uiso   1.00
C27    C     0.63940   0.00000   0.22120   0.01267  Uiso   1.00
C28    C     0.69770   0.00000   0.10460   0.01267  Uiso   1.00
N1     N     0.74690   0.57230   0.23950   0.01267  Uiso   1.00
N2     N     0.61360   0.63430   0.22450   0.01267  Uiso   1.00
N3     N     0.58050   0.72270   0.27330   0.01267  Uiso   1.00
N4     N     0.68690   0.71490   0.31790   0.01267  Uiso   1.00
N5     N     0.11240   0.46890   0.09450   0.01267  Uiso   1.00
N6     N     0.19860   0.48170   0.99690   0.01267  Uiso   1.00
N7     N     0.55870   0.42770   0.76050   0.01267  Uiso   1.00
N8     N     0.47240   0.36570   0.77550   0.01267  Uiso   1.00
N9     N     0.57650   0.27730   0.72670   0.01267  Uiso   1.00
N10    N     0.71970   0.28510   0.68210   0.01267  Uiso   1.00
N11    N     0.67580   0.53110   0.90550   0.01267  Uiso   1.00
N12    N     0.67720   0.51830   0.00310   0.01267  Uiso   1.00
N13    N     0.01360   0.23950   0.42770   0.01267  Uiso   1.00
N14    N     0.16190   0.22450   0.36570   0.01267  Uiso   1.00
N15    N     0.14620   0.27330   0.27730   0.01267  Uiso   1.00
N16    N     0.99520   0.31790   0.28510   0.01267  Uiso   1.00
N17    N     0.79310   0.09450   0.53110   0.01267  Uiso   1.00
N18    N     0.80450   0.99690   0.51830   0.01267  Uiso   1.00
N19    N     0.68080   0.76050   0.57230   0.01267  Uiso   1.00
N20    N     0.75210   0.77550   0.63430   0.01267  Uiso   1.00
N21    N     0.69680   0.72670   0.72270   0.01267  Uiso   1.00
N22    N     0.59820   0.68210   0.71490   0.01267  Uiso   1.00
N23    N     0.41870   0.90550   0.46890   0.01267  Uiso   1.00
N24    N     0.31970   0.00310   0.48170   0.01267  Uiso   1.00
N25    N     0.05870   0.76050   0.42770   0.01267  Uiso   1.00
N26    N     0.97240   0.77550   0.36570   0.01267  Uiso   1.00
N27    N     0.07650   0.72670   0.27730   0.01267  Uiso   1.00
N28    N     0.21970   0.68210   0.28510   0.01267  Uiso   1.00
N29    N     0.17580   0.90550   0.53110   0.01267  Uiso   1.00
N30    N     0.17720   0.00310   0.51830   0.01267  Uiso   1.00
N31    N     0.24690   0.23950   0.57230   0.01267  Uiso   1.00
N32    N     0.11360   0.22450   0.63430   0.01267  Uiso   1.00
N33    N     0.08050   0.27330   0.72270   0.01267  Uiso   1.00
N34    N     0.18690   0.31790   0.71490   0.01267  Uiso   1.00
N35    N     0.61240   0.09450   0.46890   0.01267  Uiso   1.00
N36    N     0.69860   0.99690   0.48170   0.01267  Uiso   1.00
N37    N     0.18080   0.57230   0.76050   0.01267  Uiso   1.00
N38    N     0.25210   0.63430   0.77550   0.01267  Uiso   1.00
N39    N     0.19680   0.72270   0.72670   0.01267  Uiso   1.00
N40    N     0.09820   0.71490   0.68210   0.01267  Uiso   1.00
N41    N     0.91870   0.46890   0.90550   0.01267  Uiso   1.00
N42    N     0.81970   0.48170   0.00310   0.01267  Uiso   1.00
N43    N     0.51360   0.42770   0.23950   0.01267  Uiso   1.00
N44    N     0.66190   0.36570   0.22450   0.01267  Uiso   1.00
N45    N     0.64620   0.27730   0.27330   0.01267  Uiso   1.00
N46    N     0.49520   0.28510   0.31790   0.01267  Uiso   1.00
N47    N     0.29310   0.53110   0.09450   0.01267  Uiso   1.00
N48    N     0.30450   0.51830   0.99690   0.01267  Uiso   1.00
O1     O     0.01240   0.26570   0.06350   0.01267  Uiso   1.00
O2     O     0.34160   0.73430   0.93650   0.01267  Uiso   1.00
O3     O     0.92410   0.06350   0.73430   0.01267  Uiso   1.00
O4     O     0.72190   0.93650   0.26570   0.01267  Uiso   1.00
O5     O     0.84160   0.93650   0.73430   0.01267  Uiso   1.00
O6     O     0.51240   0.06350   0.26570   0.01267  Uiso   1.00
O7     O     0.22190   0.26570   0.93650   0.01267  Uiso   1.00
O8     O     0.42410   0.73430   0.06350   0.01267  Uiso   1.00
