data_NASDIW_clean
_audit_creation_date              2014-07-02
_audit_creation_method            'Materials Studio'
_symmetry_space_group_name_H-M    'P1'
_symmetry_Int_Tables_number       1
_symmetry_cell_setting            triclinic
loop_
_symmetry_equiv_pos_as_xyz
  x,y,z
_cell_length_a                    7.7070
_cell_length_b                    7.9029
_cell_length_c                    11.8994
_cell_angle_alpha                 104.9000
_cell_angle_beta                  104.3000
_cell_angle_gamma                 103.3800
loop_
_atom_site_label
_atom_site_type_symbol
_atom_site_fract_x
_atom_site_fract_y
_atom_site_fract_z
_atom_site_U_iso_or_equiv
_atom_site_adp_type
_atom_site_occupancy
Na1    Na    0.00000   0.50000   0.50000   0.01267  Uiso   1.00
Na2    Na    0.50000   0.00000   0.50000   0.01267  Uiso   1.00
Co1    Co    0.69116   0.69116   0.38232   0.01267  Uiso   1.00
Co2    Co    0.30884   0.30884   0.61768   0.01267  Uiso   1.00
H1     H     0.30810   0.57720   0.00000   0.01267  Uiso   1.00
H2     H     0.69190   0.42280   0.00000   0.01267  Uiso   1.00
C1     C     0.05634   0.94374   0.52948   0.01267  Uiso   1.00
C2     C     0.31191   0.67641   0.23002   0.01267  Uiso   1.00
C3     C     0.14896   0.57986   0.11132   0.01267  Uiso   1.00
C4     C     0.47314   0.58574   0.52948   0.01267  Uiso   1.00
C5     C     0.91811   0.55361   0.23002   0.01267  Uiso   1.00
C6     C     0.96236   0.53146   0.11132   0.01267  Uiso   1.00
C7     C     0.94366   0.05626   0.47052   0.01267  Uiso   1.00
C8     C     0.68809   0.32359   0.76998   0.01267  Uiso   1.00
C9     C     0.85104   0.42014   0.88868   0.01267  Uiso   1.00
C10    C     0.52686   0.41426   0.47052   0.01267  Uiso   1.00
C11    C     0.08189   0.44639   0.76998   0.01267  Uiso   1.00
C12    C     0.03764   0.46854   0.88868   0.01267  Uiso   1.00
C13    C     0.18410   0.54660   0.00000   0.01267  Uiso   1.00
C14    C     0.81590   0.45340   0.00000   0.01267  Uiso   1.00
O1     O     0.96371   0.78441   0.51782   0.01267  Uiso   1.00
O2     O     0.22935   0.02055   0.58504   0.01267  Uiso   1.00
O3     O     0.43880   0.59940   0.24580   0.01267  Uiso   1.00
O4     O     0.31335   0.82225   0.30010   0.01267  Uiso   1.00
O5     O     0.55411   0.73341   0.51782   0.01267  Uiso   1.00
O6     O     0.35569   0.56449   0.58504   0.01267  Uiso   1.00
O7     O     0.80700   0.64640   0.24580   0.01267  Uiso   1.00
O8     O     0.98675   0.47785   0.30010   0.01267  Uiso   1.00
O9     O     0.03629   0.21559   0.48218   0.01267  Uiso   1.00
O10    O     0.77065   0.97945   0.41496   0.01267  Uiso   1.00
O11    O     0.56120   0.40060   0.75420   0.01267  Uiso   1.00
O12    O     0.68665   0.17775   0.69990   0.01267  Uiso   1.00
O13    O     0.44589   0.26659   0.48218   0.01267  Uiso   1.00
O14    O     0.64431   0.43551   0.41496   0.01267  Uiso   1.00
O15    O     0.19300   0.35360   0.75420   0.01267  Uiso   1.00
O16    O     0.01325   0.52215   0.69990   0.01267  Uiso   1.00
