data_NATNIG_charged
_audit_creation_date              2014-07-02
_audit_creation_method            'Materials Studio'
_symmetry_space_group_name_H-M    'P1'
_symmetry_Int_Tables_number       1
_symmetry_cell_setting            triclinic
loop_
_symmetry_equiv_pos_as_xyz
  x,y,z
_cell_length_a                    11.7743
_cell_length_b                    13.4750
_cell_length_c                    14.1520
_cell_angle_alpha                 97.3579
_cell_angle_beta                  112.1090
_cell_angle_gamma                 113.4360
loop_
_atom_site_label
_atom_site_type_symbol
_atom_site_fract_x
_atom_site_fract_y
_atom_site_fract_z
_atom_site_U_iso_or_equiv
_atom_site_adp_type
_atom_site_occupancy
Cu1    Cu    0.32541   0.10902   0.46471   0.01267  Uiso   1.00
Cu2    Cu    0.67459   0.89098   0.53529   0.01267  Uiso   1.00
H1     H     0.10660   0.63810   0.70020   0.01267  Uiso   1.00
H2     H     0.27320   0.82080   0.92460   0.01267  Uiso   1.00
H3     H     0.04840   0.58740   0.86040   0.01267  Uiso   1.00
H4     H     0.35860   0.96450   0.60540   0.01267  Uiso   1.00
H5     H     0.25770   0.78020   0.60340   0.01267  Uiso   1.00
H6     H     0.93980   0.70300   0.31870   0.01267  Uiso   1.00
H7     H     0.05100   0.88960   0.32650   0.01267  Uiso   1.00
H8     H     0.92510   0.55500   0.38850   0.01267  Uiso   1.00
H9     H     0.12530   0.54250   0.39990   0.01267  Uiso   1.00
H10    H     0.18910   0.57650   0.52600   0.01267  Uiso   1.00
H11    H     0.71030   0.54150   0.41890   0.01267  Uiso   1.00
H12    H     0.60840   0.65460   0.41490   0.01267  Uiso   1.00
H13    H     0.04810   0.78750   0.68460   0.01267  Uiso   1.00
H14    H     0.93350   0.88900   0.67070   0.01267  Uiso   1.00
H15    H     0.28050   0.92580   0.28940   0.01267  Uiso   1.00
H16    H     0.33200   0.90220   0.14950   0.01267  Uiso   1.00
H17    H     0.52080   0.24230   0.21950   0.01267  Uiso   1.00
H18    H     0.46810   0.25620   0.35770   0.01267  Uiso   1.00
H19    H     0.51960   0.13860   0.07500   0.01267  Uiso   1.00
H20    H     0.55390   0.95040   0.12210   0.01267  Uiso   1.00
H21    H     0.67020   0.07890   0.18240   0.01267  Uiso   1.00
H22    H     0.35880   0.17340   0.93230   0.01267  Uiso   1.00
H23    H     0.17750   0.21510   0.87430   0.01267  Uiso   1.00
H24    H     0.08350   0.87620   0.92660   0.01267  Uiso   1.00
H25    H     0.92100   0.93230   0.87280   0.01267  Uiso   1.00
H26    H     0.64420   0.21750   0.56990   0.01267  Uiso   1.00
H27    H     0.83470   0.33320   0.73230   0.01267  Uiso   1.00
H28    H     0.58140   0.29830   0.86300   0.01267  Uiso   1.00
H29    H     0.39730   0.17880   0.69880   0.01267  Uiso   1.00
H30    H     0.81640   0.41940   0.97550   0.01267  Uiso   1.00
H31    H     0.92190   0.30280   0.97680   0.01267  Uiso   1.00
H32    H     0.00600   0.37500   0.92380   0.01267  Uiso   1.00
H33    H     0.82520   0.57490   0.73150   0.01267  Uiso   1.00
H34    H     0.63610   0.60050   0.64470   0.01267  Uiso   1.00
H35    H     0.74440   0.57260   0.97980   0.01267  Uiso   1.00
H36    H     0.55860   0.59960   0.88600   0.01267  Uiso   1.00
H37    H     0.89340   0.36190   0.29980   0.01267  Uiso   1.00
H38    H     0.72680   0.17920   0.07540   0.01267  Uiso   1.00
H39    H     0.95160   0.41260   0.13960   0.01267  Uiso   1.00
H40    H     0.64140   0.03550   0.39460   0.01267  Uiso   1.00
H41    H     0.74230   0.21980   0.39660   0.01267  Uiso   1.00
H42    H     0.06020   0.29700   0.68130   0.01267  Uiso   1.00
H43    H     0.94900   0.11040   0.67350   0.01267  Uiso   1.00
H44    H     0.07490   0.44500   0.61150   0.01267  Uiso   1.00
H45    H     0.87470   0.45750   0.60010   0.01267  Uiso   1.00
H46    H     0.81090   0.42350   0.47400   0.01267  Uiso   1.00
H47    H     0.28970   0.45850   0.58110   0.01267  Uiso   1.00
H48    H     0.39160   0.34540   0.58510   0.01267  Uiso   1.00
H49    H     0.95190   0.21250   0.31540   0.01267  Uiso   1.00
H50    H     0.06650   0.11100   0.32930   0.01267  Uiso   1.00
H51    H     0.71950   0.07420   0.71060   0.01267  Uiso   1.00
H52    H     0.66800   0.09780   0.85050   0.01267  Uiso   1.00
H53    H     0.47920   0.75770   0.78050   0.01267  Uiso   1.00
H54    H     0.53190   0.74380   0.64230   0.01267  Uiso   1.00
H55    H     0.48040   0.86140   0.92500   0.01267  Uiso   1.00
H56    H     0.44610   0.04960   0.87790   0.01267  Uiso   1.00
H57    H     0.32980   0.92110   0.81760   0.01267  Uiso   1.00
H58    H     0.64120   0.82660   0.06770   0.01267  Uiso   1.00
H59    H     0.82250   0.78490   0.12570   0.01267  Uiso   1.00
H60    H     0.91650   0.12380   0.07340   0.01267  Uiso   1.00
H61    H     0.07900   0.06770   0.12720   0.01267  Uiso   1.00
H62    H     0.35580   0.78250   0.43010   0.01267  Uiso   1.00
H63    H     0.16530   0.66680   0.26770   0.01267  Uiso   1.00
H64    H     0.41860   0.70170   0.13700   0.01267  Uiso   1.00
H65    H     0.60270   0.82120   0.30120   0.01267  Uiso   1.00
H66    H     0.18360   0.58060   0.02450   0.01267  Uiso   1.00
H67    H     0.07810   0.69720   0.02320   0.01267  Uiso   1.00
H68    H     0.99400   0.62500   0.07620   0.01267  Uiso   1.00
H69    H     0.17480   0.42510   0.26850   0.01267  Uiso   1.00
H70    H     0.36390   0.39950   0.35530   0.01267  Uiso   1.00
H71    H     0.25560   0.42740   0.02020   0.01267  Uiso   1.00
H72    H     0.44140   0.40040   0.11400   0.01267  Uiso   1.00
C1     C     0.27310   0.91140   0.54630   0.01267  Uiso   1.00
C2     C     0.21250   0.80020   0.54580   0.01267  Uiso   1.00
C3     C     0.08510   0.71820   0.46040   0.01267  Uiso   1.00
C4     C     0.02570   0.75450   0.37830   0.01267  Uiso   1.00
C5     C     0.09360   0.86810   0.38380   0.01267  Uiso   1.00
C6     C     0.01340   0.59670   0.45610   0.01267  Uiso   1.00
C7     C     0.10210   0.53750   0.45870   0.01267  Uiso   1.00
C8     C     0.97820   0.58960   0.55190   0.01267  Uiso   1.00
C9     C     0.89540   0.65140   0.54950   0.01267  Uiso   1.00
C10    C     0.76020   0.61340   0.47090   0.01267  Uiso   1.00
C11    C     0.69920   0.68220   0.46950   0.01267  Uiso   1.00
C12    C     0.95880   0.75820   0.62730   0.01267  Uiso   1.00
C13    C     0.88840   0.81820   0.61800   0.01267  Uiso   1.00
C14    C     0.33060   0.99060   0.27580   0.01267  Uiso   1.00
C15    C     0.36080   0.97530   0.19070   0.01267  Uiso   1.00
C16    C     0.43340   0.06920   0.16790   0.01267  Uiso   1.00
C17    C     0.47270   0.17640   0.23250   0.01267  Uiso   1.00
C18    C     0.43990   0.18380   0.31530   0.01267  Uiso   1.00
C19    C     0.47800   0.06180   0.08030   0.01267  Uiso   1.00
C20    C     0.59190   0.02490   0.11330   0.01267  Uiso   1.00
C21    C     0.35550   0.98120   0.96900   0.01267  Uiso   1.00
C22    C     0.24300   0.01530   0.93420   0.01267  Uiso   1.00
C23    C     0.27000   0.12080   0.91970   0.01267  Uiso   1.00
C24    C     0.15940   0.14500   0.88540   0.01267  Uiso   1.00
C25    C     0.10770   0.94700   0.91620   0.01267  Uiso   1.00
C26    C     0.01050   0.98130   0.88410   0.01267  Uiso   1.00
C27    C     0.63080   0.23450   0.62940   0.01267  Uiso   1.00
C28    C     0.74570   0.30420   0.72720   0.01267  Uiso   1.00
C29    C     0.73280   0.33210   0.81710   0.01267  Uiso   1.00
C30    C     0.59700   0.28320   0.80440   0.01267  Uiso   1.00
C31    C     0.48680   0.21280   0.70500   0.01267  Uiso   1.00
C32    C     0.85400   0.41570   0.92490   0.01267  Uiso   1.00
C33    C     0.96530   0.37850   0.97140   0.01267  Uiso   1.00
C34    C     0.91940   0.53590   0.91630   0.01267  Uiso   1.00
C35    C     0.80550   0.56770   0.86710   0.01267  Uiso   1.00
C36    C     0.77170   0.57850   0.76490   0.01267  Uiso   1.00
C37    C     0.65740   0.59450   0.71330   0.01267  Uiso   1.00
C38    C     0.72470   0.57720   0.91090   0.01267  Uiso   1.00
C39    C     0.61230   0.59380   0.85360   0.01267  Uiso   1.00
C40    C     0.72690   0.08860   0.45370   0.01267  Uiso   1.00
C41    C     0.78750   0.19980   0.45420   0.01267  Uiso   1.00
C42    C     0.91490   0.28180   0.53960   0.01267  Uiso   1.00
C43    C     0.97430   0.24550   0.62170   0.01267  Uiso   1.00
C44    C     0.90640   0.13190   0.61620   0.01267  Uiso   1.00
C45    C     0.98660   0.40330   0.54390   0.01267  Uiso   1.00
C46    C     0.89790   0.46250   0.54130   0.01267  Uiso   1.00
C47    C     0.02180   0.41040   0.44810   0.01267  Uiso   1.00
C48    C     0.10460   0.34860   0.45050   0.01267  Uiso   1.00
C49    C     0.23980   0.38660   0.52910   0.01267  Uiso   1.00
C50    C     0.30080   0.31780   0.53050   0.01267  Uiso   1.00
C51    C     0.04120   0.24180   0.37270   0.01267  Uiso   1.00
C52    C     0.11160   0.18180   0.38200   0.01267  Uiso   1.00
C53    C     0.66940   0.00940   0.72420   0.01267  Uiso   1.00
C54    C     0.63920   0.02470   0.80930   0.01267  Uiso   1.00
C55    C     0.56660   0.93080   0.83210   0.01267  Uiso   1.00
C56    C     0.52730   0.82360   0.76750   0.01267  Uiso   1.00
C57    C     0.56010   0.81620   0.68470   0.01267  Uiso   1.00
C58    C     0.52200   0.93820   0.91970   0.01267  Uiso   1.00
C59    C     0.40810   0.97510   0.88670   0.01267  Uiso   1.00
C60    C     0.64450   0.01880   0.03100   0.01267  Uiso   1.00
C61    C     0.75700   0.98470   0.06580   0.01267  Uiso   1.00
C62    C     0.73000   0.87920   0.08030   0.01267  Uiso   1.00
C63    C     0.84060   0.85500   0.11460   0.01267  Uiso   1.00
C64    C     0.89230   0.05300   0.08380   0.01267  Uiso   1.00
C65    C     0.98950   0.01870   0.11590   0.01267  Uiso   1.00
C66    C     0.36920   0.76550   0.37060   0.01267  Uiso   1.00
C67    C     0.25430   0.69580   0.27280   0.01267  Uiso   1.00
C68    C     0.26720   0.66790   0.18290   0.01267  Uiso   1.00
C69    C     0.40300   0.71680   0.19560   0.01267  Uiso   1.00
C70    C     0.51320   0.78720   0.29500   0.01267  Uiso   1.00
C71    C     0.14600   0.58430   0.07510   0.01267  Uiso   1.00
C72    C     0.03470   0.62150   0.02860   0.01267  Uiso   1.00
C73    C     0.08060   0.46410   0.08370   0.01267  Uiso   1.00
C74    C     0.19450   0.43230   0.13290   0.01267  Uiso   1.00
C75    C     0.22830   0.42150   0.23510   0.01267  Uiso   1.00
C76    C     0.34260   0.40550   0.28670   0.01267  Uiso   1.00
C77    C     0.27530   0.42280   0.08910   0.01267  Uiso   1.00
C78    C     0.38770   0.40620   0.14640   0.01267  Uiso   1.00
N1     N     0.21560   0.94750   0.46620   0.01267  Uiso   1.00
N2     N     0.76110   0.78480   0.54040   0.01267  Uiso   1.00
N3     N     0.36930   0.09290   0.33920   0.01267  Uiso   1.00
N4     N     0.03370   0.07810   0.86780   0.01267  Uiso   1.00
N5     N     0.49990   0.18990   0.61630   0.01267  Uiso   1.00
N6     N     0.57710   0.60190   0.75520   0.01267  Uiso   1.00
N7     N     0.78440   0.05250   0.53380   0.01267  Uiso   1.00
N8     N     0.23890   0.21520   0.45960   0.01267  Uiso   1.00
N9     N     0.63070   0.90710   0.66080   0.01267  Uiso   1.00
N10    N     0.96630   0.92190   0.13220   0.01267  Uiso   1.00
N11    N     0.50010   0.81010   0.38370   0.01267  Uiso   1.00
N12    N     0.42290   0.39810   0.24480   0.01267  Uiso   1.00
O1     O     0.11450   0.65330   0.64800   0.01267  Uiso   1.00
O2     O     0.29310   0.86920   0.97810   0.01267  Uiso   1.00
O3     O     0.97290   0.52970   0.83870   0.01267  Uiso   1.00
O4     O     0.88550   0.34670   0.35200   0.01267  Uiso   1.00
O5     O     0.70690   0.13080   0.02190   0.01267  Uiso   1.00
O6     O     0.02710   0.47030   0.16130   0.01267  Uiso   1.00
N13    N     0.25400   0.60410   0.85350   0.01267  Uiso   1.00
O7     O     0.36920   0.64460   0.93240   0.01267  Uiso   1.00
O8     O     0.20280   0.66830   0.83380   0.01267  Uiso   1.00
O9     O     0.16300   0.50270   0.82910   0.01267  Uiso   1.00
N14    N     0.74600   0.39590   0.14650   0.01267  Uiso   1.00
O10    O     0.63080   0.35540   0.06760   0.01267  Uiso   1.00
O11    O     0.79720   0.33170   0.16620   0.01267  Uiso   1.00
O12    O     0.83700   0.49730   0.17090   0.01267  Uiso   1.00
