data_NATXUC_clean
_audit_creation_date              2014-07-02
_audit_creation_method            'Materials Studio'
_symmetry_space_group_name_H-M    'P1'
_symmetry_Int_Tables_number       1
_symmetry_cell_setting            triclinic
loop_
_symmetry_equiv_pos_as_xyz
  x,y,z
_cell_length_a                    11.3424
_cell_length_b                    15.4516
_cell_length_c                    51.3190
_cell_angle_alpha                 90.0000
_cell_angle_beta                  90.0000
_cell_angle_gamma                 96.0090
loop_
_atom_site_label
_atom_site_type_symbol
_atom_site_fract_x
_atom_site_fract_y
_atom_site_fract_z
_atom_site_U_iso_or_equiv
_atom_site_adp_type
_atom_site_occupancy
Ag1    Ag    0.44718   0.20761   0.85795   0.01267  Uiso   1.00
Ag2    Ag    0.27669   0.18281   0.80886   0.01267  Uiso   1.00
Ag3    Ag    0.30747   0.99611   0.80448   0.01267  Uiso   1.00
Ag4    Ag    0.45895   0.02203   0.85330   0.01267  Uiso   1.00
Ag5    Ag    0.30027   0.11155   0.89440   0.01267  Uiso   1.00
Ag6    Ag    0.03418   0.10701   0.83787   0.01267  Uiso   1.00
Ag7    Ag    0.12004   0.93726   0.84192   0.01267  Uiso   1.00
Ag8    Ag    0.36198   0.87571   0.88394   0.01267  Uiso   1.00
Ag9    Ag    0.17227   0.06979   0.94128   0.01267  Uiso   1.00
Ag10   Ag    0.01151   0.02210   0.89066   0.01267  Uiso   1.00
Ag11   Ag    0.02334   0.83479   0.88730   0.01267  Uiso   1.00
Ag12   Ag    0.16202   0.86692   0.94199   0.01267  Uiso   1.00
Ag13   Ag    0.39969   0.98379   0.93171   0.01267  Uiso   1.00
Ag14   Ag    0.80286   0.12774   0.91602   0.01267  Uiso   1.00
Ag15   Ag    0.74297   0.00764   0.87138   0.01267  Uiso   1.00
Ag16   Ag    0.76130   0.29103   0.87464   0.01267  Uiso   1.00
Ag17   Ag    0.76248   0.17255   0.83258   0.01267  Uiso   1.00
Ag18   Ag    0.60987   0.89566   0.82888   0.01267  Uiso   1.00
Ag19   Ag    0.68680   0.75503   0.87958   0.01267  Uiso   1.00
Ag20   Ag    0.67259   0.87709   0.92099   0.01267  Uiso   1.00
Ag21   Ag    0.05282   0.79239   0.35795   0.01267  Uiso   1.00
Ag22   Ag    0.22331   0.81719   0.30886   0.01267  Uiso   1.00
Ag23   Ag    0.19253   0.00389   0.30448   0.01267  Uiso   1.00
Ag24   Ag    0.04105   0.97797   0.35330   0.01267  Uiso   1.00
Ag25   Ag    0.19973   0.88845   0.39440   0.01267  Uiso   1.00
Ag26   Ag    0.46582   0.89299   0.33787   0.01267  Uiso   1.00
Ag27   Ag    0.37996   0.06274   0.34192   0.01267  Uiso   1.00
Ag28   Ag    0.13802   0.12429   0.38394   0.01267  Uiso   1.00
Ag29   Ag    0.32773   0.93021   0.44128   0.01267  Uiso   1.00
Ag30   Ag    0.48849   0.97790   0.39066   0.01267  Uiso   1.00
Ag31   Ag    0.47666   0.16521   0.38730   0.01267  Uiso   1.00
Ag32   Ag    0.33798   0.13308   0.44199   0.01267  Uiso   1.00
Ag33   Ag    0.10031   0.01621   0.43171   0.01267  Uiso   1.00
Ag34   Ag    0.69714   0.87226   0.41602   0.01267  Uiso   1.00
Ag35   Ag    0.75703   0.99236   0.37138   0.01267  Uiso   1.00
Ag36   Ag    0.73870   0.70897   0.37464   0.01267  Uiso   1.00
Ag37   Ag    0.73752   0.82745   0.33258   0.01267  Uiso   1.00
Ag38   Ag    0.89013   0.10434   0.32888   0.01267  Uiso   1.00
Ag39   Ag    0.81320   0.24497   0.37958   0.01267  Uiso   1.00
Ag40   Ag    0.82741   0.12291   0.42099   0.01267  Uiso   1.00
Ag41   Ag    0.55282   0.79239   0.14205   0.01267  Uiso   1.00
Ag42   Ag    0.72331   0.81719   0.19114   0.01267  Uiso   1.00
Ag43   Ag    0.69253   0.00389   0.19552   0.01267  Uiso   1.00
Ag44   Ag    0.54105   0.97797   0.14670   0.01267  Uiso   1.00
Ag45   Ag    0.69973   0.88845   0.10560   0.01267  Uiso   1.00
Ag46   Ag    0.96582   0.89299   0.16213   0.01267  Uiso   1.00
Ag47   Ag    0.87996   0.06274   0.15808   0.01267  Uiso   1.00
Ag48   Ag    0.63802   0.12429   0.11606   0.01267  Uiso   1.00
Ag49   Ag    0.82773   0.93021   0.05872   0.01267  Uiso   1.00
Ag50   Ag    0.98849   0.97790   0.10934   0.01267  Uiso   1.00
Ag51   Ag    0.97666   0.16521   0.11270   0.01267  Uiso   1.00
Ag52   Ag    0.83798   0.13308   0.05801   0.01267  Uiso   1.00
Ag53   Ag    0.60031   0.01621   0.06829   0.01267  Uiso   1.00
Ag54   Ag    0.19714   0.87226   0.08398   0.01267  Uiso   1.00
Ag55   Ag    0.25703   0.99236   0.12862   0.01267  Uiso   1.00
Ag56   Ag    0.23870   0.70897   0.12536   0.01267  Uiso   1.00
Ag57   Ag    0.23752   0.82745   0.16742   0.01267  Uiso   1.00
Ag58   Ag    0.39013   0.10434   0.17112   0.01267  Uiso   1.00
Ag59   Ag    0.31320   0.24497   0.12042   0.01267  Uiso   1.00
Ag60   Ag    0.32741   0.12291   0.07901   0.01267  Uiso   1.00
Ag61   Ag    0.94718   0.20761   0.64205   0.01267  Uiso   1.00
Ag62   Ag    0.77669   0.18281   0.69114   0.01267  Uiso   1.00
Ag63   Ag    0.80747   0.99611   0.69552   0.01267  Uiso   1.00
Ag64   Ag    0.95895   0.02203   0.64670   0.01267  Uiso   1.00
Ag65   Ag    0.80027   0.11155   0.60560   0.01267  Uiso   1.00
Ag66   Ag    0.53418   0.10701   0.66213   0.01267  Uiso   1.00
Ag67   Ag    0.62004   0.93726   0.65808   0.01267  Uiso   1.00
Ag68   Ag    0.86198   0.87571   0.61606   0.01267  Uiso   1.00
Ag69   Ag    0.67227   0.06979   0.55872   0.01267  Uiso   1.00
Ag70   Ag    0.51151   0.02210   0.60934   0.01267  Uiso   1.00
Ag71   Ag    0.52334   0.83479   0.61270   0.01267  Uiso   1.00
Ag72   Ag    0.66202   0.86692   0.55801   0.01267  Uiso   1.00
Ag73   Ag    0.89969   0.98379   0.56829   0.01267  Uiso   1.00
Ag74   Ag    0.30286   0.12774   0.58398   0.01267  Uiso   1.00
Ag75   Ag    0.24297   0.00764   0.62862   0.01267  Uiso   1.00
Ag76   Ag    0.26130   0.29103   0.62536   0.01267  Uiso   1.00
Ag77   Ag    0.26248   0.17255   0.66742   0.01267  Uiso   1.00
Ag78   Ag    0.10987   0.89566   0.67112   0.01267  Uiso   1.00
Ag79   Ag    0.18680   0.75503   0.62042   0.01267  Uiso   1.00
Ag80   Ag    0.17259   0.87709   0.57901   0.01267  Uiso   1.00
H1     H     0.87670   0.00920   0.75380   0.01267  Uiso   1.00
H2     H     0.58550   0.88840   0.72820   0.01267  Uiso   1.00
H3     H     0.52460   0.85910   0.76980   0.01267  Uiso   1.00
H4     H     0.58450   0.12520   0.74130   0.01267  Uiso   1.00
H5     H     0.89450   0.25850   0.73980   0.01267  Uiso   1.00
H6     H     0.90480   0.25280   0.78350   0.01267  Uiso   1.00
H7     H     0.92460   0.94320   0.00220   0.01267  Uiso   1.00
H8     H     0.61490   0.82890   0.02110   0.01267  Uiso   1.00
H9     H     0.56540   0.81530   0.97690   0.01267  Uiso   1.00
H10    H     0.63150   0.07200   0.00730   0.01267  Uiso   1.00
H11    H     0.94200   0.20820   0.00910   0.01267  Uiso   1.00
H12    H     0.94720   0.20780   0.96520   0.01267  Uiso   1.00
H13    H     0.33560   0.54870   0.87220   0.01267  Uiso   1.00
H14    H     0.41120   0.47550   0.87140   0.01267  Uiso   1.00
H15    H     0.56690   0.42180   0.87460   0.01267  Uiso   1.00
H16    H     0.90800   0.47480   0.87900   0.01267  Uiso   1.00
H17    H     0.88600   0.62070   0.87950   0.01267  Uiso   1.00
H18    H     0.62330   0.99080   0.25380   0.01267  Uiso   1.00
H19    H     0.91450   0.11160   0.22820   0.01267  Uiso   1.00
H20    H     0.97540   0.14090   0.26980   0.01267  Uiso   1.00
H21    H     0.91550   0.87480   0.24130   0.01267  Uiso   1.00
H22    H     0.60550   0.74150   0.23980   0.01267  Uiso   1.00
H23    H     0.59520   0.74720   0.28350   0.01267  Uiso   1.00
H24    H     0.57540   0.05680   0.50220   0.01267  Uiso   1.00
H25    H     0.88510   0.17110   0.52110   0.01267  Uiso   1.00
H26    H     0.93460   0.18470   0.47690   0.01267  Uiso   1.00
H27    H     0.86850   0.92800   0.50730   0.01267  Uiso   1.00
H28    H     0.55800   0.79180   0.50910   0.01267  Uiso   1.00
H29    H     0.55280   0.79220   0.46520   0.01267  Uiso   1.00
H30    H     0.16440   0.45130   0.37220   0.01267  Uiso   1.00
H31    H     0.08880   0.52450   0.37140   0.01267  Uiso   1.00
H32    H     0.93310   0.57820   0.37460   0.01267  Uiso   1.00
H33    H     0.59200   0.52520   0.37900   0.01267  Uiso   1.00
H34    H     0.61400   0.37930   0.37950   0.01267  Uiso   1.00
H35    H     0.12330   0.99080   0.24620   0.01267  Uiso   1.00
H36    H     0.41450   0.11160   0.27180   0.01267  Uiso   1.00
H37    H     0.47540   0.14090   0.23020   0.01267  Uiso   1.00
H38    H     0.41550   0.87480   0.25870   0.01267  Uiso   1.00
H39    H     0.10550   0.74150   0.26020   0.01267  Uiso   1.00
H40    H     0.09520   0.74720   0.21650   0.01267  Uiso   1.00
H41    H     0.07540   0.05680   0.99780   0.01267  Uiso   1.00
H42    H     0.38510   0.17110   0.97890   0.01267  Uiso   1.00
H43    H     0.43460   0.18470   0.02310   0.01267  Uiso   1.00
H44    H     0.36850   0.92800   0.99270   0.01267  Uiso   1.00
H45    H     0.05800   0.79180   0.99090   0.01267  Uiso   1.00
H46    H     0.05280   0.79220   0.03480   0.01267  Uiso   1.00
H47    H     0.66440   0.45130   0.12780   0.01267  Uiso   1.00
H48    H     0.58880   0.52450   0.12860   0.01267  Uiso   1.00
H49    H     0.43310   0.57820   0.12540   0.01267  Uiso   1.00
H50    H     0.09200   0.52520   0.12100   0.01267  Uiso   1.00
H51    H     0.11400   0.37930   0.12050   0.01267  Uiso   1.00
H52    H     0.37670   0.00920   0.74620   0.01267  Uiso   1.00
H53    H     0.08550   0.88840   0.77180   0.01267  Uiso   1.00
H54    H     0.02460   0.85910   0.73020   0.01267  Uiso   1.00
H55    H     0.08450   0.12520   0.75870   0.01267  Uiso   1.00
H56    H     0.39450   0.25850   0.76020   0.01267  Uiso   1.00
H57    H     0.40480   0.25280   0.71650   0.01267  Uiso   1.00
H58    H     0.42460   0.94320   0.49780   0.01267  Uiso   1.00
H59    H     0.11490   0.82890   0.47890   0.01267  Uiso   1.00
H60    H     0.06540   0.81530   0.52310   0.01267  Uiso   1.00
H61    H     0.13150   0.07200   0.49270   0.01267  Uiso   1.00
H62    H     0.44200   0.20820   0.49090   0.01267  Uiso   1.00
H63    H     0.44720   0.20780   0.53480   0.01267  Uiso   1.00
H64    H     0.83560   0.54870   0.62780   0.01267  Uiso   1.00
H65    H     0.91120   0.47550   0.62860   0.01267  Uiso   1.00
H66    H     0.06690   0.42180   0.62540   0.01267  Uiso   1.00
H67    H     0.40800   0.47480   0.62100   0.01267  Uiso   1.00
H68    H     0.38600   0.62070   0.62050   0.01267  Uiso   1.00
C1     C     0.31200   0.10280   0.84750   0.01267  Uiso   1.00
C2     C     0.22500   0.06250   0.83930   0.01267  Uiso   1.00
C3     C     0.23710   0.97200   0.91030   0.01267  Uiso   1.00
C4     C     0.15190   0.93730   0.89960   0.01267  Uiso   1.00
C5     C     0.89770   0.11250   0.87540   0.01267  Uiso   1.00
C6     C     0.83220   0.16900   0.87140   0.01267  Uiso   1.00
C7     C     0.61650   0.87870   0.88130   0.01267  Uiso   1.00
C8     C     0.55610   0.92470   0.86950   0.01267  Uiso   1.00
C9     C     0.10970   0.24290   0.91340   0.01267  Uiso   1.00
C10    C     0.05520   0.32850   0.91280   0.01267  Uiso   1.00
C11    C     0.12380   0.39970   0.92860   0.01267  Uiso   1.00
C12    C     0.09270   0.30960   0.82370   0.01267  Uiso   1.00
C13    C     0.05940   0.40270   0.82230   0.01267  Uiso   1.00
C14    C     0.08100   0.44140   0.79530   0.01267  Uiso   1.00
C15    C     0.51150   0.24400   0.91800   0.01267  Uiso   1.00
C16    C     0.57610   0.29730   0.93973   0.01267  Uiso   1.00
C17    C     0.51520   0.37710   0.94720   0.01267  Uiso   1.00
C18    C     0.91730   0.72830   0.93580   0.01267  Uiso   1.00
C19    C     0.84180   0.65000   0.94740   0.01267  Uiso   1.00
C20    C     0.85870   0.63060   0.97610   0.01267  Uiso   1.00
C21    C     0.92850   0.78660   0.83080   0.01267  Uiso   1.00
C22    C     0.85400   0.71420   0.81580   0.01267  Uiso   1.00
C23    C     0.87890   0.70790   0.78690   0.01267  Uiso   1.00
C24    C     0.85170   0.98880   0.80480   0.01267  Uiso   1.00
C25    C     0.77060   0.95720   0.78210   0.01267  Uiso   1.00
C26    C     0.80410   0.97680   0.75670   0.01267  Uiso   1.00
C27    C     0.63520   0.90780   0.74190   0.01267  Uiso   1.00
C28    C     0.59870   0.88940   0.76690   0.01267  Uiso   1.00
C29    C     0.56020   0.09840   0.79250   0.01267  Uiso   1.00
C30    C     0.65600   0.14710   0.77650   0.01267  Uiso   1.00
C31    C     0.65220   0.15100   0.74960   0.01267  Uiso   1.00
C32    C     0.83220   0.22840   0.74890   0.01267  Uiso   1.00
C33    C     0.83830   0.22560   0.77510   0.01267  Uiso   1.00
C34    C     0.90660   0.95610   0.95220   0.01267  Uiso   1.00
C35    C     0.81920   0.91370   0.97180   0.01267  Uiso   1.00
C36    C     0.84900   0.91900   0.99760   0.01267  Uiso   1.00
C37    C     0.66910   0.85140   0.00860   0.01267  Uiso   1.00
C38    C     0.63870   0.84300   0.98180   0.01267  Uiso   1.00
C39    C     0.59920   0.05640   0.95670   0.01267  Uiso   1.00
C40    C     0.70130   0.10120   0.97260   0.01267  Uiso   1.00
C41    C     0.69790   0.09970   0.99900   0.01267  Uiso   1.00
C42    C     0.87900   0.17890   0.00010   0.01267  Uiso   1.00
C43    C     0.88170   0.17940   0.97370   0.01267  Uiso   1.00
C44    C     0.50110   0.58680   0.87490   0.01267  Uiso   1.00
C45    C     0.62170   0.55010   0.87560   0.01267  Uiso   1.00
C46    C     0.63400   0.46180   0.87540   0.01267  Uiso   1.00
C47    C     0.83220   0.49250   0.87810   0.01267  Uiso   1.00
C48    C     0.81890   0.58070   0.87850   0.01267  Uiso   1.00
C49    C     0.18800   0.89720   0.34750   0.01267  Uiso   1.00
C50    C     0.27500   0.93750   0.33930   0.01267  Uiso   1.00
C51    C     0.26290   0.02800   0.41030   0.01267  Uiso   1.00
C52    C     0.34810   0.06270   0.39960   0.01267  Uiso   1.00
C53    C     0.60230   0.88750   0.37540   0.01267  Uiso   1.00
C54    C     0.66780   0.83100   0.37140   0.01267  Uiso   1.00
C55    C     0.88350   0.12130   0.38130   0.01267  Uiso   1.00
C56    C     0.94390   0.07530   0.36950   0.01267  Uiso   1.00
C57    C     0.39030   0.75710   0.41340   0.01267  Uiso   1.00
C58    C     0.44480   0.67150   0.41280   0.01267  Uiso   1.00
C59    C     0.37620   0.60030   0.42860   0.01267  Uiso   1.00
C60    C     0.40730   0.69040   0.32370   0.01267  Uiso   1.00
C61    C     0.44060   0.59730   0.32230   0.01267  Uiso   1.00
C62    C     0.41900   0.55860   0.29530   0.01267  Uiso   1.00
C63    C     0.98850   0.75600   0.41800   0.01267  Uiso   1.00
C64    C     0.92390   0.70270   0.43973   0.01267  Uiso   1.00
C65    C     0.98480   0.62290   0.44720   0.01267  Uiso   1.00
C66    C     0.58270   0.27170   0.43580   0.01267  Uiso   1.00
C67    C     0.65820   0.35000   0.44740   0.01267  Uiso   1.00
C68    C     0.64130   0.36940   0.47610   0.01267  Uiso   1.00
C69    C     0.57150   0.21340   0.33080   0.01267  Uiso   1.00
C70    C     0.64600   0.28580   0.31580   0.01267  Uiso   1.00
C71    C     0.62110   0.29210   0.28690   0.01267  Uiso   1.00
C72    C     0.64830   0.01120   0.30480   0.01267  Uiso   1.00
C73    C     0.72940   0.04280   0.28210   0.01267  Uiso   1.00
C74    C     0.69590   0.02320   0.25670   0.01267  Uiso   1.00
C75    C     0.86480   0.09220   0.24190   0.01267  Uiso   1.00
C76    C     0.90130   0.11060   0.26690   0.01267  Uiso   1.00
C77    C     0.93980   0.90160   0.29250   0.01267  Uiso   1.00
C78    C     0.84400   0.85290   0.27650   0.01267  Uiso   1.00
C79    C     0.84780   0.84900   0.24960   0.01267  Uiso   1.00
C80    C     0.66780   0.77160   0.24890   0.01267  Uiso   1.00
C81    C     0.66170   0.77440   0.27510   0.01267  Uiso   1.00
C82    C     0.59340   0.04390   0.45220   0.01267  Uiso   1.00
C83    C     0.68080   0.08630   0.47180   0.01267  Uiso   1.00
C84    C     0.65100   0.08100   0.49760   0.01267  Uiso   1.00
C85    C     0.83090   0.14860   0.50860   0.01267  Uiso   1.00
C86    C     0.86130   0.15700   0.48180   0.01267  Uiso   1.00
C87    C     0.90080   0.94360   0.45670   0.01267  Uiso   1.00
C88    C     0.79870   0.89880   0.47260   0.01267  Uiso   1.00
C89    C     0.80210   0.90030   0.49900   0.01267  Uiso   1.00
C90    C     0.62100   0.82110   0.50010   0.01267  Uiso   1.00
C91    C     0.61830   0.82060   0.47370   0.01267  Uiso   1.00
C92    C     0.99890   0.41320   0.37490   0.01267  Uiso   1.00
C93    C     0.87830   0.44990   0.37560   0.01267  Uiso   1.00
C94    C     0.86600   0.53820   0.37540   0.01267  Uiso   1.00
C95    C     0.66780   0.50750   0.37810   0.01267  Uiso   1.00
C96    C     0.68110   0.41930   0.37850   0.01267  Uiso   1.00
C97    C     0.68800   0.89720   0.15250   0.01267  Uiso   1.00
C98    C     0.77500   0.93750   0.16070   0.01267  Uiso   1.00
C99    C     0.76290   0.02800   0.08970   0.01267  Uiso   1.00
C100   C     0.84810   0.06270   0.10040   0.01267  Uiso   1.00
C101   C     0.10230   0.88750   0.12460   0.01267  Uiso   1.00
C102   C     0.16780   0.83100   0.12860   0.01267  Uiso   1.00
C103   C     0.38350   0.12130   0.11870   0.01267  Uiso   1.00
C104   C     0.44390   0.07530   0.13050   0.01267  Uiso   1.00
C105   C     0.89030   0.75710   0.08660   0.01267  Uiso   1.00
C106   C     0.94480   0.67150   0.08720   0.01267  Uiso   1.00
C107   C     0.87620   0.60030   0.07140   0.01267  Uiso   1.00
C108   C     0.90730   0.69040   0.17630   0.01267  Uiso   1.00
C109   C     0.94060   0.59730   0.17770   0.01267  Uiso   1.00
C110   C     0.91900   0.55860   0.20470   0.01267  Uiso   1.00
C111   C     0.48850   0.75600   0.08200   0.01267  Uiso   1.00
C112   C     0.42390   0.70270   0.06027   0.01267  Uiso   1.00
C113   C     0.48480   0.62290   0.05280   0.01267  Uiso   1.00
C114   C     0.08270   0.27170   0.06420   0.01267  Uiso   1.00
C115   C     0.15820   0.35000   0.05260   0.01267  Uiso   1.00
C116   C     0.14130   0.36940   0.02390   0.01267  Uiso   1.00
C117   C     0.07150   0.21340   0.16920   0.01267  Uiso   1.00
C118   C     0.14600   0.28580   0.18420   0.01267  Uiso   1.00
C119   C     0.12110   0.29210   0.21310   0.01267  Uiso   1.00
C120   C     0.14830   0.01120   0.19520   0.01267  Uiso   1.00
C121   C     0.22940   0.04280   0.21790   0.01267  Uiso   1.00
C122   C     0.19590   0.02320   0.24330   0.01267  Uiso   1.00
C123   C     0.36480   0.09220   0.25810   0.01267  Uiso   1.00
C124   C     0.40130   0.11060   0.23310   0.01267  Uiso   1.00
C125   C     0.43980   0.90160   0.20750   0.01267  Uiso   1.00
C126   C     0.34400   0.85290   0.22350   0.01267  Uiso   1.00
C127   C     0.34780   0.84900   0.25040   0.01267  Uiso   1.00
C128   C     0.16780   0.77160   0.25110   0.01267  Uiso   1.00
C129   C     0.16170   0.77440   0.22490   0.01267  Uiso   1.00
C130   C     0.09340   0.04390   0.04780   0.01267  Uiso   1.00
C131   C     0.18080   0.08630   0.02820   0.01267  Uiso   1.00
C132   C     0.15100   0.08100   0.00240   0.01267  Uiso   1.00
C133   C     0.33090   0.14860   0.99140   0.01267  Uiso   1.00
C134   C     0.36130   0.15700   0.01820   0.01267  Uiso   1.00
C135   C     0.40080   0.94360   0.04330   0.01267  Uiso   1.00
C136   C     0.29870   0.89880   0.02740   0.01267  Uiso   1.00
C137   C     0.30210   0.90030   0.00100   0.01267  Uiso   1.00
C138   C     0.12100   0.82110   0.99990   0.01267  Uiso   1.00
C139   C     0.11830   0.82060   0.02630   0.01267  Uiso   1.00
C140   C     0.49890   0.41320   0.12510   0.01267  Uiso   1.00
C141   C     0.37830   0.44990   0.12440   0.01267  Uiso   1.00
C142   C     0.36600   0.53820   0.12460   0.01267  Uiso   1.00
C143   C     0.16780   0.50750   0.12190   0.01267  Uiso   1.00
C144   C     0.18110   0.41930   0.12150   0.01267  Uiso   1.00
C145   C     0.81200   0.10280   0.65250   0.01267  Uiso   1.00
C146   C     0.72500   0.06250   0.66070   0.01267  Uiso   1.00
C147   C     0.73710   0.97200   0.58970   0.01267  Uiso   1.00
C148   C     0.65190   0.93730   0.60040   0.01267  Uiso   1.00
C149   C     0.39770   0.11250   0.62460   0.01267  Uiso   1.00
C150   C     0.33220   0.16900   0.62860   0.01267  Uiso   1.00
C151   C     0.11650   0.87870   0.61870   0.01267  Uiso   1.00
C152   C     0.05610   0.92470   0.63050   0.01267  Uiso   1.00
C153   C     0.60970   0.24290   0.58660   0.01267  Uiso   1.00
C154   C     0.55520   0.32850   0.58720   0.01267  Uiso   1.00
C155   C     0.62380   0.39970   0.57140   0.01267  Uiso   1.00
C156   C     0.59270   0.30960   0.67630   0.01267  Uiso   1.00
C157   C     0.55940   0.40270   0.67770   0.01267  Uiso   1.00
C158   C     0.58100   0.44140   0.70470   0.01267  Uiso   1.00
C159   C     0.01150   0.24400   0.58200   0.01267  Uiso   1.00
C160   C     0.07610   0.29730   0.56027   0.01267  Uiso   1.00
C161   C     0.01520   0.37710   0.55280   0.01267  Uiso   1.00
C162   C     0.41730   0.72830   0.56420   0.01267  Uiso   1.00
C163   C     0.34180   0.65000   0.55260   0.01267  Uiso   1.00
C164   C     0.35870   0.63060   0.52390   0.01267  Uiso   1.00
C165   C     0.42850   0.78660   0.66920   0.01267  Uiso   1.00
C166   C     0.35400   0.71420   0.68420   0.01267  Uiso   1.00
C167   C     0.37890   0.70790   0.71310   0.01267  Uiso   1.00
C168   C     0.35170   0.98880   0.69520   0.01267  Uiso   1.00
C169   C     0.27060   0.95720   0.71790   0.01267  Uiso   1.00
C170   C     0.30410   0.97680   0.74330   0.01267  Uiso   1.00
C171   C     0.13520   0.90780   0.75810   0.01267  Uiso   1.00
C172   C     0.09870   0.88940   0.73310   0.01267  Uiso   1.00
C173   C     0.06020   0.09840   0.70750   0.01267  Uiso   1.00
C174   C     0.15600   0.14710   0.72350   0.01267  Uiso   1.00
C175   C     0.15220   0.15100   0.75040   0.01267  Uiso   1.00
C176   C     0.33220   0.22840   0.75110   0.01267  Uiso   1.00
C177   C     0.33830   0.22560   0.72490   0.01267  Uiso   1.00
C178   C     0.40660   0.95610   0.54780   0.01267  Uiso   1.00
C179   C     0.31920   0.91370   0.52820   0.01267  Uiso   1.00
C180   C     0.34900   0.91900   0.50240   0.01267  Uiso   1.00
C181   C     0.16910   0.85140   0.49140   0.01267  Uiso   1.00
C182   C     0.13870   0.84300   0.51820   0.01267  Uiso   1.00
C183   C     0.09920   0.05640   0.54330   0.01267  Uiso   1.00
C184   C     0.20130   0.10120   0.52740   0.01267  Uiso   1.00
C185   C     0.19790   0.09970   0.50100   0.01267  Uiso   1.00
C186   C     0.37900   0.17890   0.49990   0.01267  Uiso   1.00
C187   C     0.38170   0.17940   0.52630   0.01267  Uiso   1.00
C188   C     0.00110   0.58680   0.62510   0.01267  Uiso   1.00
C189   C     0.12170   0.55010   0.62440   0.01267  Uiso   1.00
C190   C     0.13400   0.46180   0.62460   0.01267  Uiso   1.00
C191   C     0.33220   0.49250   0.62190   0.01267  Uiso   1.00
C192   C     0.31890   0.58070   0.62150   0.01267  Uiso   1.00
N1     N     0.66870   0.91450   0.78730   0.01267  Uiso   1.00
N2     N     0.73680   0.95140   0.73640   0.01267  Uiso   1.00
N3     N     0.75140   0.18470   0.78920   0.01267  Uiso   1.00
N4     N     0.73800   0.18880   0.73500   0.01267  Uiso   1.00
N5     N     0.71530   0.87500   0.96400   0.01267  Uiso   1.00
N6     N     0.77340   0.89060   0.01620   0.01267  Uiso   1.00
N7     N     0.79360   0.14070   0.95970   0.01267  Uiso   1.00
N8     N     0.78840   0.13740   0.01360   0.01267  Uiso   1.00
N9     N     0.71350   0.60920   0.87750   0.01267  Uiso   1.00
N10    N     0.74130   0.43350   0.87640   0.01267  Uiso   1.00
N11    N     0.40460   0.53030   0.87260   0.01267  Uiso   1.00
N12    N     0.83130   0.08550   0.28730   0.01267  Uiso   1.00
N13    N     0.76320   0.04860   0.23640   0.01267  Uiso   1.00
N14    N     0.74860   0.81530   0.28920   0.01267  Uiso   1.00
N15    N     0.76200   0.81120   0.23500   0.01267  Uiso   1.00
N16    N     0.78470   0.12500   0.46400   0.01267  Uiso   1.00
N17    N     0.72660   0.10940   0.51620   0.01267  Uiso   1.00
N18    N     0.70640   0.85930   0.45970   0.01267  Uiso   1.00
N19    N     0.71160   0.86260   0.51360   0.01267  Uiso   1.00
N20    N     0.78650   0.39080   0.37750   0.01267  Uiso   1.00
N21    N     0.75870   0.56650   0.37640   0.01267  Uiso   1.00
N22    N     0.09540   0.46970   0.37260   0.01267  Uiso   1.00
N23    N     0.33130   0.08550   0.21270   0.01267  Uiso   1.00
N24    N     0.26320   0.04860   0.26360   0.01267  Uiso   1.00
N25    N     0.24860   0.81530   0.21080   0.01267  Uiso   1.00
N26    N     0.26200   0.81120   0.26500   0.01267  Uiso   1.00
N27    N     0.28470   0.12500   0.03600   0.01267  Uiso   1.00
N28    N     0.22660   0.10940   0.98380   0.01267  Uiso   1.00
N29    N     0.20640   0.85930   0.04030   0.01267  Uiso   1.00
N30    N     0.21160   0.86260   0.98640   0.01267  Uiso   1.00
N31    N     0.28650   0.39080   0.12250   0.01267  Uiso   1.00
N32    N     0.25870   0.56650   0.12360   0.01267  Uiso   1.00
N33    N     0.59540   0.46970   0.12740   0.01267  Uiso   1.00
N34    N     0.16870   0.91450   0.71270   0.01267  Uiso   1.00
N35    N     0.23680   0.95140   0.76360   0.01267  Uiso   1.00
N36    N     0.25140   0.18470   0.71080   0.01267  Uiso   1.00
N37    N     0.23800   0.18880   0.76500   0.01267  Uiso   1.00
N38    N     0.21530   0.87500   0.53600   0.01267  Uiso   1.00
N39    N     0.27340   0.89060   0.48380   0.01267  Uiso   1.00
N40    N     0.29360   0.14070   0.54030   0.01267  Uiso   1.00
N41    N     0.28840   0.13740   0.48640   0.01267  Uiso   1.00
N42    N     0.21350   0.60920   0.62250   0.01267  Uiso   1.00
N43    N     0.24130   0.43350   0.62360   0.01267  Uiso   1.00
N44    N     0.90460   0.53030   0.62740   0.01267  Uiso   1.00
O1     O     0.19010   0.23520   0.89650   0.01267  Uiso   1.00
O2     O     0.07260   0.18970   0.92900   0.01267  Uiso   1.00
O3     O     0.01290   0.25010   0.82220   0.01267  Uiso   1.00
O4     O     0.20320   0.30670   0.82620   0.01267  Uiso   1.00
O5     O     0.42410   0.19400   0.92570   0.01267  Uiso   1.00
O6     O     0.55350   0.25450   0.89580   0.01267  Uiso   1.00
O7     O     0.00500   0.76130   0.94880   0.01267  Uiso   1.00
O8     O     0.88780   0.74880   0.91350   0.01267  Uiso   1.00
O9     O     0.89750   0.78360   0.85440   0.01267  Uiso   1.00
O10    O     0.01400   0.83170   0.82140   0.01267  Uiso   1.00
O11    O     0.82450   0.96030   0.82640   0.01267  Uiso   1.00
O12    O     0.94060   0.04070   0.79910   0.01267  Uiso   1.00
O13    O     0.58430   0.08720   0.81654   0.01267  Uiso   1.00
O14    O     0.46960   0.07050   0.78131   0.01267  Uiso   1.00
O15    O     0.87170   0.96010   0.92842   0.01267  Uiso   1.00
O16    O     0.00660   0.98370   0.96003   0.01267  Uiso   1.00
O17    O     0.61300   0.05190   0.93235   0.01267  Uiso   1.00
O18    O     0.51070   0.02600   0.96797   0.01267  Uiso   1.00
O19    O     0.49670   0.66420   0.87660   0.01267  Uiso   1.00
O20    O     0.30990   0.76480   0.39650   0.01267  Uiso   1.00
O21    O     0.42740   0.81030   0.42900   0.01267  Uiso   1.00
O22    O     0.48710   0.74990   0.32220   0.01267  Uiso   1.00
O23    O     0.29680   0.69330   0.32620   0.01267  Uiso   1.00
O24    O     0.07590   0.80600   0.42570   0.01267  Uiso   1.00
O25    O     0.94650   0.74550   0.39580   0.01267  Uiso   1.00
O26    O     0.49500   0.23870   0.44880   0.01267  Uiso   1.00
O27    O     0.61220   0.25120   0.41350   0.01267  Uiso   1.00
O28    O     0.60250   0.21640   0.35440   0.01267  Uiso   1.00
O29    O     0.48600   0.16830   0.32140   0.01267  Uiso   1.00
O30    O     0.67550   0.03970   0.32640   0.01267  Uiso   1.00
O31    O     0.55940   0.95930   0.29910   0.01267  Uiso   1.00
O32    O     0.91570   0.91280   0.31654   0.01267  Uiso   1.00
O33    O     0.03040   0.92950   0.28131   0.01267  Uiso   1.00
O34    O     0.62830   0.03990   0.42842   0.01267  Uiso   1.00
O35    O     0.49340   0.01630   0.46003   0.01267  Uiso   1.00
O36    O     0.88700   0.94810   0.43235   0.01267  Uiso   1.00
O37    O     0.98930   0.97400   0.46797   0.01267  Uiso   1.00
O38    O     0.00330   0.33580   0.37660   0.01267  Uiso   1.00
O39    O     0.80990   0.76480   0.10350   0.01267  Uiso   1.00
O40    O     0.92740   0.81030   0.07100   0.01267  Uiso   1.00
O41    O     0.98710   0.74990   0.17780   0.01267  Uiso   1.00
O42    O     0.79680   0.69330   0.17380   0.01267  Uiso   1.00
O43    O     0.57590   0.80600   0.07430   0.01267  Uiso   1.00
O44    O     0.44650   0.74550   0.10420   0.01267  Uiso   1.00
O45    O     0.99500   0.23870   0.05120   0.01267  Uiso   1.00
O46    O     0.11220   0.25120   0.08650   0.01267  Uiso   1.00
O47    O     0.10250   0.21640   0.14560   0.01267  Uiso   1.00
O48    O     0.98600   0.16830   0.17860   0.01267  Uiso   1.00
O49    O     0.17550   0.03970   0.17360   0.01267  Uiso   1.00
O50    O     0.05940   0.95930   0.20090   0.01267  Uiso   1.00
O51    O     0.41570   0.91280   0.18346   0.01267  Uiso   1.00
O52    O     0.53040   0.92950   0.21869   0.01267  Uiso   1.00
O53    O     0.12830   0.03990   0.07158   0.01267  Uiso   1.00
O54    O     0.99340   0.01630   0.03997   0.01267  Uiso   1.00
O55    O     0.38700   0.94810   0.06765   0.01267  Uiso   1.00
O56    O     0.48930   0.97400   0.03203   0.01267  Uiso   1.00
O57    O     0.50330   0.33580   0.12340   0.01267  Uiso   1.00
O58    O     0.69010   0.23520   0.60350   0.01267  Uiso   1.00
O59    O     0.57260   0.18970   0.57100   0.01267  Uiso   1.00
O60    O     0.51290   0.25010   0.67780   0.01267  Uiso   1.00
O61    O     0.70320   0.30670   0.67380   0.01267  Uiso   1.00
O62    O     0.92410   0.19400   0.57430   0.01267  Uiso   1.00
O63    O     0.05350   0.25450   0.60420   0.01267  Uiso   1.00
O64    O     0.50500   0.76130   0.55120   0.01267  Uiso   1.00
O65    O     0.38780   0.74880   0.58650   0.01267  Uiso   1.00
O66    O     0.39750   0.78360   0.64560   0.01267  Uiso   1.00
O67    O     0.51400   0.83170   0.67860   0.01267  Uiso   1.00
O68    O     0.32450   0.96030   0.67360   0.01267  Uiso   1.00
O69    O     0.44060   0.04070   0.70090   0.01267  Uiso   1.00
O70    O     0.08430   0.08720   0.68346   0.01267  Uiso   1.00
O71    O     0.96960   0.07050   0.71869   0.01267  Uiso   1.00
O72    O     0.37170   0.96010   0.57158   0.01267  Uiso   1.00
O73    O     0.50660   0.98370   0.53997   0.01267  Uiso   1.00
O74    O     0.11300   0.05190   0.56765   0.01267  Uiso   1.00
O75    O     0.01070   0.02600   0.53203   0.01267  Uiso   1.00
O76    O     0.99670   0.66420   0.62340   0.01267  Uiso   1.00
F1     F     0.04970   0.35870   0.88880   0.01267  Uiso   1.00
F2     F     0.94450   0.32010   0.92190   0.01267  Uiso   1.00
F3     F     0.07050   0.47130   0.92780   0.01267  Uiso   1.00
F4     F     0.13200   0.37540   0.95300   0.01267  Uiso   1.00
F5     F     0.23110   0.41500   0.91860   0.01267  Uiso   1.00
F6     F     0.94600   0.40530   0.82810   0.01267  Uiso   1.00
F7     F     0.12330   0.45760   0.83830   0.01267  Uiso   1.00
F8     F     0.19210   0.44440   0.78810   0.01267  Uiso   1.00
F9     F     0.05000   0.52070   0.79310   0.01267  Uiso   1.00
F10    F     0.01600   0.39210   0.77870   0.01267  Uiso   1.00
F11    F     0.68600   0.32570   0.93298   0.01267  Uiso   1.00
F12    F     0.58300   0.25160   0.96161   0.01267  Uiso   1.00
F13    F     0.49130   0.42330   0.92650   0.01267  Uiso   1.00
F14    F     0.41180   0.35590   0.95840   0.01267  Uiso   1.00
F15    F     0.57850   0.42930   0.96340   0.01267  Uiso   1.00
F16    F     0.86000   0.57410   0.93580   0.01267  Uiso   1.00
F17    F     0.72850   0.66230   0.94430   0.01267  Uiso   1.00
F18    F     0.78040   0.56420   0.98230   0.01267  Uiso   1.00
F19    F     0.83770   0.70510   0.98710   0.01267  Uiso   1.00
F20    F     0.96790   0.61020   0.97980   0.01267  Uiso   1.00
F21    F     0.87000   0.63210   0.82380   0.01267  Uiso   1.00
F22    F     0.73970   0.72700   0.81800   0.01267  Uiso   1.00
F23    F     0.80160   0.64550   0.77750   0.01267  Uiso   1.00
F24    F     0.85920   0.78990   0.78290   0.01267  Uiso   1.00
F25    F     0.98950   0.68890   0.78420   0.01267  Uiso   1.00
F26    F     0.45030   0.64130   0.38880   0.01267  Uiso   1.00
F27    F     0.55550   0.67990   0.42190   0.01267  Uiso   1.00
F28    F     0.42950   0.52870   0.42780   0.01267  Uiso   1.00
F29    F     0.36800   0.62460   0.45300   0.01267  Uiso   1.00
F30    F     0.26890   0.58500   0.41860   0.01267  Uiso   1.00
F31    F     0.55400   0.59470   0.32810   0.01267  Uiso   1.00
F32    F     0.37670   0.54240   0.33830   0.01267  Uiso   1.00
F33    F     0.30790   0.55560   0.28810   0.01267  Uiso   1.00
F34    F     0.45000   0.47930   0.29310   0.01267  Uiso   1.00
F35    F     0.48400   0.60790   0.27870   0.01267  Uiso   1.00
F36    F     0.81400   0.67430   0.43298   0.01267  Uiso   1.00
F37    F     0.91700   0.74840   0.46161   0.01267  Uiso   1.00
F38    F     0.00870   0.57670   0.42650   0.01267  Uiso   1.00
F39    F     0.08820   0.64410   0.45840   0.01267  Uiso   1.00
F40    F     0.92150   0.57070   0.46340   0.01267  Uiso   1.00
F41    F     0.64000   0.42590   0.43580   0.01267  Uiso   1.00
F42    F     0.77150   0.33770   0.44430   0.01267  Uiso   1.00
F43    F     0.71960   0.43580   0.48230   0.01267  Uiso   1.00
F44    F     0.66230   0.29490   0.48710   0.01267  Uiso   1.00
F45    F     0.53210   0.38980   0.47980   0.01267  Uiso   1.00
F46    F     0.63000   0.36790   0.32380   0.01267  Uiso   1.00
F47    F     0.76030   0.27300   0.31800   0.01267  Uiso   1.00
F48    F     0.69840   0.35450   0.27750   0.01267  Uiso   1.00
F49    F     0.64080   0.21010   0.28290   0.01267  Uiso   1.00
F50    F     0.51050   0.31110   0.28420   0.01267  Uiso   1.00
F51    F     0.95030   0.64130   0.11120   0.01267  Uiso   1.00
F52    F     0.05550   0.67990   0.07810   0.01267  Uiso   1.00
F53    F     0.92950   0.52870   0.07220   0.01267  Uiso   1.00
F54    F     0.86800   0.62460   0.04700   0.01267  Uiso   1.00
F55    F     0.76890   0.58500   0.08140   0.01267  Uiso   1.00
F56    F     0.05400   0.59470   0.17190   0.01267  Uiso   1.00
F57    F     0.87670   0.54240   0.16170   0.01267  Uiso   1.00
F58    F     0.80790   0.55560   0.21190   0.01267  Uiso   1.00
F59    F     0.95000   0.47930   0.20690   0.01267  Uiso   1.00
F60    F     0.98400   0.60790   0.22130   0.01267  Uiso   1.00
F61    F     0.31400   0.67430   0.06702   0.01267  Uiso   1.00
F62    F     0.41700   0.74840   0.03839   0.01267  Uiso   1.00
F63    F     0.50870   0.57670   0.07350   0.01267  Uiso   1.00
F64    F     0.58820   0.64410   0.04160   0.01267  Uiso   1.00
F65    F     0.42150   0.57070   0.03660   0.01267  Uiso   1.00
F66    F     0.14000   0.42590   0.06420   0.01267  Uiso   1.00
F67    F     0.27150   0.33770   0.05570   0.01267  Uiso   1.00
F68    F     0.21960   0.43580   0.01770   0.01267  Uiso   1.00
F69    F     0.16230   0.29490   0.01290   0.01267  Uiso   1.00
F70    F     0.03210   0.38980   0.02020   0.01267  Uiso   1.00
F71    F     0.13000   0.36790   0.17620   0.01267  Uiso   1.00
F72    F     0.26030   0.27300   0.18200   0.01267  Uiso   1.00
F73    F     0.19840   0.35450   0.22250   0.01267  Uiso   1.00
F74    F     0.14080   0.21010   0.21710   0.01267  Uiso   1.00
F75    F     0.01050   0.31110   0.21580   0.01267  Uiso   1.00
F76    F     0.54970   0.35870   0.61120   0.01267  Uiso   1.00
F77    F     0.44450   0.32010   0.57810   0.01267  Uiso   1.00
F78    F     0.57050   0.47130   0.57220   0.01267  Uiso   1.00
F79    F     0.63200   0.37540   0.54700   0.01267  Uiso   1.00
F80    F     0.73110   0.41500   0.58140   0.01267  Uiso   1.00
F81    F     0.44600   0.40530   0.67190   0.01267  Uiso   1.00
F82    F     0.62330   0.45760   0.66170   0.01267  Uiso   1.00
F83    F     0.69210   0.44440   0.71190   0.01267  Uiso   1.00
F84    F     0.55000   0.52070   0.70690   0.01267  Uiso   1.00
F85    F     0.51600   0.39210   0.72130   0.01267  Uiso   1.00
F86    F     0.18600   0.32570   0.56702   0.01267  Uiso   1.00
F87    F     0.08300   0.25160   0.53839   0.01267  Uiso   1.00
F88    F     0.99130   0.42330   0.57350   0.01267  Uiso   1.00
F89    F     0.91180   0.35590   0.54160   0.01267  Uiso   1.00
F90    F     0.07850   0.42930   0.53660   0.01267  Uiso   1.00
F91    F     0.36000   0.57410   0.56420   0.01267  Uiso   1.00
F92    F     0.22850   0.66230   0.55570   0.01267  Uiso   1.00
F93    F     0.28040   0.56420   0.51770   0.01267  Uiso   1.00
F94    F     0.33770   0.70510   0.51290   0.01267  Uiso   1.00
F95    F     0.46790   0.61020   0.52020   0.01267  Uiso   1.00
F96    F     0.37000   0.63210   0.67620   0.01267  Uiso   1.00
F97    F     0.23970   0.72700   0.68200   0.01267  Uiso   1.00
F98    F     0.30160   0.64550   0.72250   0.01267  Uiso   1.00
F99    F     0.35920   0.78990   0.71710   0.01267  Uiso   1.00
F100   F     0.48950   0.68890   0.71580   0.01267  Uiso   1.00
