data_NAXKOO01_clean_h
_audit_creation_date              2014-07-02
_audit_creation_method            'Materials Studio'
_symmetry_space_group_name_H-M    'P1'
_symmetry_Int_Tables_number       1
_symmetry_cell_setting            triclinic
loop_
_symmetry_equiv_pos_as_xyz
  x,y,z
_cell_length_a                    6.6080
_cell_length_b                    7.7998
_cell_length_c                    10.6170
_cell_angle_alpha                 111.5510
_cell_angle_beta                  104.7500
_cell_angle_gamma                 90.0000
loop_
_atom_site_label
_atom_site_type_symbol
_atom_site_fract_x
_atom_site_fract_y
_atom_site_fract_z
_atom_site_U_iso_or_equiv
_atom_site_adp_type
_atom_site_occupancy
Al1    Al    0.00000   0.00000   0.00000   0.01267  Uiso   1.00
Al2    Al    0.50000   0.00000   0.00000   0.01267  Uiso   1.00
C1     C     0.90800   0.94900   0.35800   0.01267  Uiso   1.00
C2     C     0.12400   0.95200   0.42400   0.01267  Uiso   1.00
C3     C     0.19000   0.97500   0.57000   0.01267  Uiso   1.00
C4     C     0.04800   0.01400   0.64800   0.01267  Uiso   1.00
C5     C     0.83200   0.01100   0.58200   0.01267  Uiso   1.00
C6     C     0.77000   0.98000   0.44000   0.01267  Uiso   1.00
C7     C     0.84400   0.91700   0.21400   0.01267  Uiso   1.00
C8     C     0.11200   0.03600   0.79200   0.01267  Uiso   1.00
C9     C     0.40800   0.40900   0.35800   0.01267  Uiso   1.00
C10    C     0.62400   0.47200   0.42400   0.01267  Uiso   1.00
C11    C     0.69000   0.59500   0.57000   0.01267  Uiso   1.00
C12    C     0.54800   0.63400   0.64800   0.01267  Uiso   1.00
C13    C     0.33200   0.57100   0.58200   0.01267  Uiso   1.00
C14    C     0.27000   0.46000   0.44000   0.01267  Uiso   1.00
C15    C     0.34400   0.29700   0.21400   0.01267  Uiso   1.00
C16    C     0.61200   0.75600   0.79200   0.01267  Uiso   1.00
N1     N     0.27600   0.91300   0.34600   0.01267  Uiso   1.00
N2     N     0.77600   0.43300   0.34600   0.01267  Uiso   1.00
O1     O     0.97400   0.89200   0.14400   0.01267  Uiso   1.00
O2     O     0.65600   0.92200   0.15600   0.01267  Uiso   1.00
O3     O     0.30000   0.03700   0.85000   0.01267  Uiso   1.00
O4     O     0.98200   0.06600   0.86200   0.01267  Uiso   1.00
O5     O     0.26625   0.89234   0.00528   0.01267  Uiso   1.00
O6     O     0.47400   0.25200   0.14400   0.01267  Uiso   1.00
O7     O     0.15600   0.23400   0.15600   0.01267  Uiso   1.00
O8     O     0.80000   0.81300   0.85000   0.01267  Uiso   1.00
O9     O     0.48200   0.79600   0.86200   0.01267  Uiso   1.00
O10    O     0.76625   0.11294   0.00528   0.01267  Uiso   1.00
H1     H     0.36019   0.96067   0.62015   0.01267  Uiso   1.00
H2     H     0.71226   0.03391   0.64573   0.01267  Uiso   1.00
H3     H     0.59725   0.97931   0.38545   0.01267  Uiso   1.00
H4     H     0.86019   0.65948   0.62015   0.01267  Uiso   1.00
H5     H     0.21226   0.61182   0.64573   0.01267  Uiso   1.00
H6     H     0.09725   0.40613   0.38545   0.01267  Uiso   1.00
H7     H     0.22872   0.82153   0.23268   0.01267  Uiso   1.00
H8     H     0.44182   0.97405   0.39849   0.01267  Uiso   1.00
H9     H     0.72872   0.34153   0.23268   0.01267  Uiso   1.00
H10    H     0.94182   0.49405   0.39849   0.01267  Uiso   1.00
