data_NAXLEF_clean_h
_audit_creation_date              2014-07-02
_audit_creation_method            'Materials Studio'
_symmetry_space_group_name_H-M    'P1'
_symmetry_Int_Tables_number       1
_symmetry_cell_setting            triclinic
loop_
_symmetry_equiv_pos_as_xyz
  x,y,z
_cell_length_a                    6.5898
_cell_length_b                    7.4814
_cell_length_c                    10.5629
_cell_angle_alpha                 110.7400
_cell_angle_beta                  104.6880
_cell_angle_gamma                 90.0000
loop_
_atom_site_label
_atom_site_type_symbol
_atom_site_fract_x
_atom_site_fract_y
_atom_site_fract_z
_atom_site_U_iso_or_equiv
_atom_site_adp_type
_atom_site_occupancy
Al1    Al    0.00000   0.00000   0.00000   0.01267  Uiso   1.00
Al2    Al    0.50000  -0.00000   0.00000   0.01267  Uiso   1.00
C1     C     0.21100   0.98300   0.54980   0.01267  Uiso   1.00
C2     C     0.87300   0.08650   0.59000   0.01267  Uiso   1.00
C3     C     0.08300   0.05270   0.64240   0.01267  Uiso   1.00
C4     C     0.12900   0.94720   0.40480   0.01267  Uiso   1.00
C5     C     0.79100   0.05070   0.44500   0.01267  Uiso   1.00
C6     C     0.91900   0.98100   0.35240   0.01267  Uiso   1.00
C7     C     0.16500   0.08860   0.78760   0.01267  Uiso   1.00
C8     C     0.83700   0.94510   0.20720   0.01267  Uiso   1.00
C9     C     0.71100   0.56680   0.54980   0.01267  Uiso   1.00
C10    C     0.37300   0.50350   0.59000   0.01267  Uiso   1.00
C11    C     0.58300   0.58970   0.64240   0.01267  Uiso   1.00
C12    C     0.62900   0.45760   0.40480   0.01267  Uiso   1.00
C13    C     0.29100   0.39430   0.44500   0.01267  Uiso   1.00
C14    C     0.41900   0.37140   0.35240   0.01267  Uiso   1.00
C15    C     0.66500   0.69900   0.78760   0.01267  Uiso   1.00
C16    C     0.33700   0.26210   0.20720   0.01267  Uiso   1.00
N1     N     0.74500   0.15610   0.68260   0.01267  Uiso   1.00
N2     N     0.24500   0.52650   0.68260   0.01267  Uiso   1.00
O1     O     0.05300   0.14960   0.86880   0.01267  Uiso   1.00
O2     O     0.35000   0.05890   0.83360   0.01267  Uiso   1.00
O3     O     0.65200   0.97480   0.16120   0.01267  Uiso   1.00
O4     O     0.94900   0.88410   0.12600   0.01267  Uiso   1.00
O5     O     0.71800   0.11190   0.99280   0.01267  Uiso   1.00
O6     O     0.55300   0.71920   0.86880   0.01267  Uiso   1.00
O7     O     0.85000   0.77470   0.83360   0.01267  Uiso   1.00
O8     O     0.15200   0.18640   0.16120   0.01267  Uiso   1.00
O9     O     0.44900   0.24190   0.12600   0.01267  Uiso   1.00
O10    O     0.21800   0.88090   0.99280   0.01267  Uiso   1.00
H1     H     0.38043   0.95562   0.59200   0.01267  Uiso   1.00
H2     H     0.23234   0.89105   0.33016   0.01267  Uiso   1.00
H3     H     0.62158   0.07806   0.40275   0.01267  Uiso   1.00
H4     H     0.88043   0.63638   0.59200   0.01267  Uiso   1.00
H5     H     0.73234   0.43910   0.33015   0.01267  Uiso   1.00
H6     H     0.12158   0.32469   0.40275   0.01267  Uiso   1.00
H7     H     0.57225   0.11514   0.64456   0.01267  Uiso   1.00
H8     H     0.81721   0.25173   0.79337   0.01267  Uiso   1.00
H9     H     0.07847   0.46269   0.64103   0.01267  Uiso   1.00
H10    H     0.31099   0.60837   0.79691   0.01267  Uiso   1.00
H11    H     0.15294   0.24212   0.97402   0.01267  Uiso   1.00
H12    H     0.64618   0.80447   0.97787   0.01267  Uiso   1.00
