data_NAXVOY02_clean
_audit_creation_date              2014-07-02
_audit_creation_method            'Materials Studio'
_symmetry_space_group_name_H-M    'P1'
_symmetry_Int_Tables_number       1
_symmetry_cell_setting            triclinic
loop_
_symmetry_equiv_pos_as_xyz
  x,y,z
_cell_length_a                    9.8850
_cell_length_b                    11.3590
_cell_length_c                    14.5840
_cell_angle_alpha                 91.3700
_cell_angle_beta                  90.0000
_cell_angle_gamma                 90.0000
loop_
_atom_site_label
_atom_site_type_symbol
_atom_site_fract_x
_atom_site_fract_y
_atom_site_fract_z
_atom_site_U_iso_or_equiv
_atom_site_adp_type
_atom_site_occupancy
Mg1    Mg    0.92237   0.74376   0.86531   0.01267  Uiso   1.00
Mg2    Mg    0.11316   0.76033   0.69071   0.01267  Uiso   1.00
Mg3    Mg    0.42237   0.75624   0.63469   0.01267  Uiso   1.00
Mg4    Mg    0.61316   0.73967   0.80929   0.01267  Uiso   1.00
Mg5    Mg    0.07763   0.25624   0.13469   0.01267  Uiso   1.00
Mg6    Mg    0.88684   0.23967   0.30929   0.01267  Uiso   1.00
Mg7    Mg    0.57763   0.24376   0.36531   0.01267  Uiso   1.00
Mg8    Mg    0.38684   0.26033   0.19071   0.01267  Uiso   1.00
Mg9    Mg    0.00000   0.00000   0.00000   0.01267  Uiso   1.00
Mg10   Mg    0.50000   0.50000   0.50000   0.01267  Uiso   1.00
Mg11   Mg    0.00000   0.50000   0.00000   0.01267  Uiso   1.00
Mg12   Mg    0.50000   0.00000   0.50000   0.01267  Uiso   1.00
H1     H     0.04080   0.02300   0.73780   0.01267  Uiso   1.00
H2     H     0.62050   0.93580   0.95790   0.01267  Uiso   1.00
H3     H     0.76300   0.63930   0.63110   0.01267  Uiso   1.00
H4     H     0.70640   0.50750   0.98430   0.01267  Uiso   1.00
H5     H     0.19530   0.52100   0.77160   0.01267  Uiso   1.00
H6     H     0.15520   0.80080   0.07140   0.01267  Uiso   1.00
H7     H     0.54080   0.47700   0.76220   0.01267  Uiso   1.00
H8     H     0.12050   0.56420   0.54210   0.01267  Uiso   1.00
H9     H     0.26300   0.86070   0.86890   0.01267  Uiso   1.00
H10    H     0.20640   0.99250   0.51570   0.01267  Uiso   1.00
H11    H     0.69530   0.97900   0.72840   0.01267  Uiso   1.00
H12    H     0.65520   0.69920   0.42860   0.01267  Uiso   1.00
H13    H     0.95920   0.97700   0.26220   0.01267  Uiso   1.00
H14    H     0.37950   0.06420   0.04210   0.01267  Uiso   1.00
H15    H     0.23700   0.36070   0.36890   0.01267  Uiso   1.00
H16    H     0.29360   0.49250   0.01570   0.01267  Uiso   1.00
H17    H     0.80470   0.47900   0.22840   0.01267  Uiso   1.00
H18    H     0.84480   0.19920   0.92860   0.01267  Uiso   1.00
H19    H     0.45920   0.52300   0.23780   0.01267  Uiso   1.00
H20    H     0.87950   0.43580   0.45790   0.01267  Uiso   1.00
H21    H     0.73700   0.13930   0.13110   0.01267  Uiso   1.00
H22    H     0.79360   0.00750   0.48430   0.01267  Uiso   1.00
H23    H     0.30470   0.02100   0.27160   0.01267  Uiso   1.00
H24    H     0.34480   0.30080   0.57140   0.01267  Uiso   1.00
C1     C     0.01842   0.97992   0.79074   0.01267  Uiso   1.00
C2     C     0.71421   0.92138   0.94863   0.01267  Uiso   1.00
C3     C     0.83241   0.67052   0.66969   0.01267  Uiso   1.00
C4     C     0.72529   0.56956   0.94372   0.01267  Uiso   1.00
C5     C     0.13227   0.54903   0.81618   0.01267  Uiso   1.00
C6     C     0.09956   0.75738   0.02966   0.01267  Uiso   1.00
C7     C     0.51842   0.52008   0.70926   0.01267  Uiso   1.00
C8     C     0.21421   0.57862   0.55137   0.01267  Uiso   1.00
C9     C     0.33241   0.82948   0.83031   0.01267  Uiso   1.00
C10    C     0.22529   0.93044   0.55628   0.01267  Uiso   1.00
C11    C     0.63227   0.95097   0.68382   0.01267  Uiso   1.00
C12    C     0.59956   0.74262   0.47034   0.01267  Uiso   1.00
C13    C     0.98158   0.02008   0.20926   0.01267  Uiso   1.00
C14    C     0.28579   0.07862   0.05137   0.01267  Uiso   1.00
C15    C     0.16759   0.32948   0.33031   0.01267  Uiso   1.00
C16    C     0.27471   0.43044   0.05628   0.01267  Uiso   1.00
C17    C     0.86773   0.45097   0.18382   0.01267  Uiso   1.00
C18    C     0.90044   0.24262   0.97034   0.01267  Uiso   1.00
C19    C     0.48158   0.47992   0.29074   0.01267  Uiso   1.00
C20    C     0.78579   0.42138   0.44863   0.01267  Uiso   1.00
C21    C     0.66759   0.17052   0.16969   0.01267  Uiso   1.00
C22    C     0.77471   0.06956   0.44372   0.01267  Uiso   1.00
C23    C     0.36773   0.04903   0.31618   0.01267  Uiso   1.00
C24    C     0.40044   0.25738   0.52966   0.01267  Uiso   1.00
O1     O     0.00857   0.86920   0.78057   0.01267  Uiso   1.00
O2     O     0.74557   0.84327   0.88837   0.01267  Uiso   1.00
O3     O     0.80143   0.69296   0.75291   0.01267  Uiso   1.00
O4     O     0.84887   0.60145   0.93704   0.01267  Uiso   1.00
O5     O     0.08267   0.65063   0.80396   0.01267  Uiso   1.00
O6     O     0.02597   0.81688   0.97517   0.01267  Uiso   1.00
O7     O     0.00178   0.03668   0.86237   0.01267  Uiso   1.00
O8     O     0.79340   0.98016   0.99609   0.01267  Uiso   1.00
O9     O     0.62839   0.61152   0.90268   0.01267  Uiso   1.00
O10    O     0.10730   0.48324   0.87961   0.01267  Uiso   1.00
O11    O     0.10484   0.64991   0.03291   0.01267  Uiso   1.00
O12    O     0.94474   0.68562   0.63440   0.01267  Uiso   1.00
O13    O     0.50857   0.63080   0.71943   0.01267  Uiso   1.00
O14    O     0.24557   0.65673   0.61163   0.01267  Uiso   1.00
O15    O     0.30143   0.80704   0.74709   0.01267  Uiso   1.00
O16    O     0.34887   0.89855   0.56296   0.01267  Uiso   1.00
O17    O     0.58267   0.84937   0.69604   0.01267  Uiso   1.00
O18    O     0.52597   0.68312   0.52483   0.01267  Uiso   1.00
O19    O     0.50178   0.46332   0.63763   0.01267  Uiso   1.00
O20    O     0.29340   0.51984   0.50391   0.01267  Uiso   1.00
O21    O     0.12839   0.88848   0.59732   0.01267  Uiso   1.00
O22    O     0.60730   0.01676   0.62039   0.01267  Uiso   1.00
O23    O     0.60484   0.85009   0.46709   0.01267  Uiso   1.00
O24    O     0.44474   0.81438   0.86560   0.01267  Uiso   1.00
O25    O     0.99143   0.13080   0.21943   0.01267  Uiso   1.00
O26    O     0.25443   0.15673   0.11163   0.01267  Uiso   1.00
O27    O     0.19857   0.30704   0.24709   0.01267  Uiso   1.00
O28    O     0.15113   0.39855   0.06296   0.01267  Uiso   1.00
O29    O     0.91733   0.34937   0.19604   0.01267  Uiso   1.00
O30    O     0.97403   0.18312   0.02483   0.01267  Uiso   1.00
O31    O     0.99822   0.96332   0.13763   0.01267  Uiso   1.00
O32    O     0.20660   0.01984   0.00391   0.01267  Uiso   1.00
O33    O     0.37161   0.38848   0.09732   0.01267  Uiso   1.00
O34    O     0.89270   0.51676   0.12039   0.01267  Uiso   1.00
O35    O     0.89516   0.35009   0.96709   0.01267  Uiso   1.00
O36    O     0.05526   0.31438   0.36560   0.01267  Uiso   1.00
O37    O     0.49143   0.36920   0.28057   0.01267  Uiso   1.00
O38    O     0.75443   0.34327   0.38837   0.01267  Uiso   1.00
O39    O     0.69857   0.19296   0.25291   0.01267  Uiso   1.00
O40    O     0.65113   0.10145   0.43704   0.01267  Uiso   1.00
O41    O     0.41733   0.15063   0.30396   0.01267  Uiso   1.00
O42    O     0.47403   0.31688   0.47517   0.01267  Uiso   1.00
O43    O     0.49822   0.53668   0.36237   0.01267  Uiso   1.00
O44    O     0.70660   0.48016   0.49609   0.01267  Uiso   1.00
O45    O     0.87161   0.11152   0.40268   0.01267  Uiso   1.00
O46    O     0.39270   0.98324   0.37961   0.01267  Uiso   1.00
O47    O     0.39516   0.14991   0.53291   0.01267  Uiso   1.00
O48    O     0.55526   0.18562   0.13440   0.01267  Uiso   1.00
