data_NAYGUR_neutral
_audit_creation_date              2014-07-02
_audit_creation_method            'Materials Studio'
_symmetry_space_group_name_H-M    'P1'
_symmetry_Int_Tables_number       1
_symmetry_cell_setting            triclinic
loop_
_symmetry_equiv_pos_as_xyz
  x,y,z
_cell_length_a                    6.9676
_cell_length_b                    17.4113
_cell_length_c                    18.6278
_cell_angle_alpha                 90.0000
_cell_angle_beta                  90.0000
_cell_angle_gamma                 90.0000
loop_
_atom_site_label
_atom_site_type_symbol
_atom_site_fract_x
_atom_site_fract_y
_atom_site_fract_z
_atom_site_U_iso_or_equiv
_atom_site_adp_type
_atom_site_occupancy
C1     C     0.91200   0.60467   0.58988   0.00000  Uiso   1.00
H2     H     0.78550   0.58910   0.60220   0.00000  Uiso   1.00
C3     C     0.21870   0.60726   0.57936   0.00000  Uiso   1.00
H4     H     0.35050   0.59380   0.58300   0.00000  Uiso   1.00
C5     C     0.08920   0.38850   0.90535   0.00000  Uiso   1.00
H6     H     0.21370   0.40120   0.88830   0.00000  Uiso   1.00
C7     C     0.78350   0.39117   0.92435   0.00000  Uiso   1.00
H8     H     0.65230   0.40600   0.92300   0.00000  Uiso   1.00
C9     C     0.90540   0.49362   0.84150   0.00000  Uiso   1.00
H10    H     0.99680   0.53430   0.85580   0.00000  Uiso   1.00
H11    H     0.77380   0.51450   0.84610   0.00000  Uiso   1.00
C12    C     0.94140   0.47178   0.76488   0.00000  Uiso   1.00
H13    H     0.87440   0.42920   0.74510   0.00000  Uiso   1.00
C14    C     0.06270   0.50963   0.72430   0.00000  Uiso   1.00
H15    H     0.13730   0.54930   0.74540   0.00000  Uiso   1.00
C16    C     0.08820   0.49296   0.64656   0.00000  Uiso   1.00
H17    H     0.21550   0.46930   0.63830   0.00000  Uiso   1.00
H18    H     0.98850   0.45640   0.63030   0.00000  Uiso   1.00
N19    N     0.95660   0.66796   0.55518   0.00000  Uiso   1.00
N20    N     0.07280   0.56555   0.60518   0.00000  Uiso   1.00
N21    N     0.04760   0.33036   0.94788   0.00000  Uiso   1.00
N22    N     0.92720   0.42696   0.88995   0.00000  Uiso   1.00
N23    N     0.15230   0.66991   0.54815   0.00000  Uiso   1.00
N24    N     0.85300   0.33250   0.96015   0.00000  Uiso   1.00
Cu25   Cu    0.70779   0.25064   0.00822   0.00000  Uiso   1.00
C26    C     0.58800   0.39533   0.08988   0.00000  Uiso   1.00
H27    H     0.71450   0.41090   0.10220   0.00000  Uiso   1.00
C28    C     0.28130   0.39274   0.07936   0.00000  Uiso   1.00
H29    H     0.14950   0.40620   0.08300   0.00000  Uiso   1.00
C30    C     0.41080   0.61150   0.40535   0.00000  Uiso   1.00
H31    H     0.28630   0.59880   0.38830   0.00000  Uiso   1.00
C32    C     0.71650   0.60883   0.42435   0.00000  Uiso   1.00
H33    H     0.84770   0.59400   0.42300   0.00000  Uiso   1.00
C34    C     0.59460   0.50638   0.34150   0.00000  Uiso   1.00
H35    H     0.50320   0.46570   0.35580   0.00000  Uiso   1.00
H36    H     0.72620   0.48550   0.34610   0.00000  Uiso   1.00
C37    C     0.55860   0.52822   0.26488   0.00000  Uiso   1.00
H38    H     0.62560   0.57080   0.24510   0.00000  Uiso   1.00
C39    C     0.43730   0.49037   0.22430   0.00000  Uiso   1.00
H40    H     0.36270   0.45070   0.24540   0.00000  Uiso   1.00
C41    C     0.41180   0.50704   0.14656   0.00000  Uiso   1.00
H42    H     0.28450   0.53070   0.13830   0.00000  Uiso   1.00
H43    H     0.51150   0.54360   0.13030   0.00000  Uiso   1.00
N44    N     0.54340   0.33204   0.05518   0.00000  Uiso   1.00
N45    N     0.42720   0.43445   0.10518   0.00000  Uiso   1.00
N46    N     0.45240   0.66964   0.44788   0.00000  Uiso   1.00
N47    N     0.57280   0.57304   0.38995   0.00000  Uiso   1.00
N48    N     0.34770   0.33009   0.04815   0.00000  Uiso   1.00
N49    N     0.64700   0.66750   0.46015   0.00000  Uiso   1.00
Cu50   Cu    0.79221   0.74936   0.50822   0.00000  Uiso   1.00
C51    C     0.08800   0.10467   0.91012   0.00000  Uiso   1.00
H52    H     0.21450   0.08910   0.89780   0.00000  Uiso   1.00
C53    C     0.78130   0.10726   0.92064   0.00000  Uiso   1.00
H54    H     0.64950   0.09380   0.91700   0.00000  Uiso   1.00
C55    C     0.91080   0.88850   0.59465   0.00000  Uiso   1.00
H56    H     0.78630   0.90120   0.61170   0.00000  Uiso   1.00
C57    C     0.21650   0.89117   0.57565   0.00000  Uiso   1.00
H58    H     0.34770   0.90600   0.57700   0.00000  Uiso   1.00
C59    C     0.09460   0.99362   0.65850   0.00000  Uiso   1.00
H60    H     0.00320   0.03430   0.64420   0.00000  Uiso   1.00
H61    H     0.22620   0.01450   0.65390   0.00000  Uiso   1.00
C62    C     0.05860   0.97178   0.73512   0.00000  Uiso   1.00
H63    H     0.12560   0.92920   0.75490   0.00000  Uiso   1.00
C64    C     0.93730   0.00963   0.77570   0.00000  Uiso   1.00
H65    H     0.86270   0.04930   0.75460   0.00000  Uiso   1.00
C66    C     0.91180   0.99296   0.85344   0.00000  Uiso   1.00
H67    H     0.78450   0.96930   0.86170   0.00000  Uiso   1.00
H68    H     0.01150   0.95640   0.86970   0.00000  Uiso   1.00
N69    N     0.04340   0.16796   0.94482   0.00000  Uiso   1.00
N70    N     0.92720   0.06555   0.89482   0.00000  Uiso   1.00
N71    N     0.95240   0.83036   0.55212   0.00000  Uiso   1.00
N72    N     0.07280   0.92696   0.61005   0.00000  Uiso   1.00
N73    N     0.84770   0.16991   0.95185   0.00000  Uiso   1.00
N74    N     0.14700   0.83250   0.53985   0.00000  Uiso   1.00
Cu75   Cu    0.29221   0.75064   0.49178   0.00000  Uiso   1.00
C76    C     0.41200   0.89533   0.41012   0.00000  Uiso   1.00
H77    H     0.28550   0.91090   0.39780   0.00000  Uiso   1.00
C78    C     0.71870   0.89274   0.42064   0.00000  Uiso   1.00
H79    H     0.85050   0.90620   0.41700   0.00000  Uiso   1.00
C80    C     0.58920   0.11150   0.09465   0.00000  Uiso   1.00
H81    H     0.71370   0.09880   0.11170   0.00000  Uiso   1.00
C82    C     0.28350   0.10883   0.07565   0.00000  Uiso   1.00
H83    H     0.15230   0.09400   0.07700   0.00000  Uiso   1.00
C84    C     0.40540   0.00638   0.15850   0.00000  Uiso   1.00
H85    H     0.49680   0.96570   0.14420   0.00000  Uiso   1.00
H86    H     0.27380   0.98550   0.15390   0.00000  Uiso   1.00
C87    C     0.44140   0.02822   0.23512   0.00000  Uiso   1.00
H88    H     0.37440   0.07080   0.25490   0.00000  Uiso   1.00
C89    C     0.56270   0.99037   0.27570   0.00000  Uiso   1.00
H90    H     0.63730   0.95070   0.25460   0.00000  Uiso   1.00
C91    C     0.58820   0.00704   0.35344   0.00000  Uiso   1.00
H92    H     0.71550   0.03070   0.36170   0.00000  Uiso   1.00
H93    H     0.48850   0.04360   0.36970   0.00000  Uiso   1.00
N94    N     0.45660   0.83204   0.44482   0.00000  Uiso   1.00
N95    N     0.57280   0.93445   0.39482   0.00000  Uiso   1.00
N96    N     0.54760   0.16964   0.05212   0.00000  Uiso   1.00
N97    N     0.42720   0.07304   0.11005   0.00000  Uiso   1.00
N98    N     0.65230   0.83009   0.45185   0.00000  Uiso   1.00
N99    N     0.35300   0.16750   0.03985   0.00000  Uiso   1.00
Cu100  Cu    0.20779   0.24936   0.99178   0.00000  Uiso   1.00
loop_
_geom_bond_atom_site_label_1
_geom_bond_atom_site_label_2
_geom_bond_distance
_geom_bond_site_symmetry_2
_ccdc_geom_bond_type
C1     H2      0.950   .     S
C1     N19     1.315   .     A
C1     N20     1.342   1_655 S
C3     H4      0.950   .     S
C3     N20     1.339   .     A
C3     N23     1.320   .     A
C5     H6      0.950   .     S
C5     N21     1.318   .     A
C5     N22     1.343   1_455 A
C7     H8      0.950   .     S
C7     N22     1.342   .     A
C7     N24     1.313   .     A
C9     H10     0.989   .     S
C9     H11     0.990   .     S
C9     C12     1.498   .     S
C9     N22     1.478   .     S
C12    H13     0.950   .     S
C12    C14     1.311   1_655 S
C14    H15     0.950   .     S
C14    C16     1.488   .     S
C14    C12     1.311   1_455 S
C16    H17     0.990   .     S
C16    N20     1.484   .     S
C16    H18     0.990   1_455 A
H18    C16     0.990   1_655 A
N19    Cu50    2.021   .     S
N19    N23     1.370   1_655 A
N20    C1      1.342   1_455 S
N21    Cu100   1.976   .     S
N21    N24     1.376   1_455 A
N22    C5      1.343   1_655 A
N23    Cu75    2.007   .     S
N23    N19     1.370   1_455 A
N24    N21     1.376   1_655 A
N24    Cu25    1.964   1_556 S
Cu25   N44     2.021   .     S
Cu25   N96     1.976   .     S
Cu25   N24     1.964   1_554 S
Cu25   N73     2.007   1_554 S
C26    H27     0.950   .     S
C26    N44     1.315   .     A
C26    N45     1.342   .     A
C28    H29     0.950   .     S
C28    N45     1.339   .     A
C28    N48     1.320   .     A
C30    H31     0.950   .     S
C30    N46     1.318   .     A
C30    N47     1.343   .     A
C32    H33     0.950   .     S
C32    N47     1.342   .     A
C32    N49     1.313   .     A
C34    H35     0.989   .     S
C34    H36     0.990   .     S
C34    C37     1.498   .     S
C34    N47     1.478   .     S
C37    H38     0.950   .     S
C37    C39     1.311   .     D
C39    H40     0.950   .     S
C39    C41     1.488   .     S
C41    H42     0.990   .     S
C41    H43     0.990   .     S
C41    N45     1.484   .     S
N44    N48     1.370   .     A
N46    N49     1.376   .     A
N46    Cu75    1.976   .     S
N48    Cu100   2.007   1_554 S
N49    Cu50    1.964   .     S
Cu50   N98     2.007   .     S
Cu50   N71     1.976   .     S
C51    H52     0.950   .     S
C51    N69     1.315   .     A
C51    N70     1.342   1_455 S
C53    H54     0.950   .     S
C53    N70     1.339   .     A
C53    N73     1.320   .     A
C55    H56     0.950   .     S
C55    N71     1.318   .     A
C55    N72     1.343   1_655 S
C57    H58     0.950   .     S
C57    N72     1.342   .     A
C57    N74     1.313   .     A
C59    C62     1.498   .     S
C59    N72     1.478   .     S
C59    H60     0.989   1_565 S
C59    H61     0.990   1_565 S
H60    C59     0.989   1_545 S
H61    C59     0.990   1_545 S
C62    H63     0.950   .     S
C62    C64     1.311   1_465 S
C64    H65     0.950   .     S
C64    C62     1.311   1_645 S
C64    C66     1.488   1_545 S
C66    H67     0.990   .     S
C66    C64     1.488   1_565 S
C66    H68     0.990   1_655 A
C66    N70     1.484   1_565 S
H68    C66     0.990   1_455 A
N69    Cu100   2.021   .     S
N69    N73     1.370   1_455 A
N70    C51     1.342   1_655 S
N70    C66     1.484   1_545 S
N71    N74     1.376   1_655 A
N72    C55     1.343   1_455 S
N73    Cu25    2.007   1_556 S
N73    N69     1.370   1_655 A
N74    Cu75    1.964   .     S
N74    N71     1.376   1_455 A
Cu75   N94     2.021   .     S
C76    H77     0.950   .     S
C76    N94     1.315   .     A
C76    N95     1.342   .     A
C78    H79     0.950   .     S
C78    N95     1.339   .     A
C78    N98     1.320   .     A
C80    H81     0.950   .     S
C80    N96     1.318   .     A
C80    N97     1.343   .     A
C82    H83     0.950   .     S
C82    N97     1.342   .     A
C82    N99     1.313   .     A
C84    C87     1.498   .     S
C84    N97     1.478   .     S
C84    H85     0.989   1_545 S
C84    H86     0.990   1_545 S
H85    C84     0.989   1_565 S
H86    C84     0.990   1_565 S
C87    H88     0.950   .     S
C87    C89     1.311   1_545 D
C89    H90     0.950   .     S
C89    C87     1.311   1_565 D
C89    C91     1.488   1_565 S
C91    H92     0.990   .     S
C91    H93     0.990   .     S
C91    C89     1.488   1_545 S
C91    N95     1.484   1_545 S
N94    N98     1.370   .     A
N95    C91     1.484   1_565 S
N96    N99     1.376   .     A
N99    Cu100   1.964   1_554 A
Cu100  N48     2.007   1_556 S
Cu100  N99     1.964   1_556 A
