data_NEGGOX_clean
_audit_creation_date              2014-07-02
_audit_creation_method            'Materials Studio'
_symmetry_space_group_name_H-M    'P1'
_symmetry_Int_Tables_number       1
_symmetry_cell_setting            triclinic
loop_
_symmetry_equiv_pos_as_xyz
  x,y,z
_cell_length_a                    8.0739
_cell_length_b                    8.0739
_cell_length_c                    10.7577
_cell_angle_alpha                 67.9596
_cell_angle_beta                  67.9596
_cell_angle_gamma                 60.0000
loop_
_atom_site_label
_atom_site_type_symbol
_atom_site_fract_x
_atom_site_fract_y
_atom_site_fract_z
_atom_site_U_iso_or_equiv
_atom_site_adp_type
_atom_site_occupancy
Mn1    Mn    0.40597   0.40597   0.78209   0.01267  Uiso   1.00
Mn2    Mn    0.59403   0.59403   0.21791   0.01267  Uiso   1.00
Mn3    Mn    0.00000   0.00000   0.00000   0.01267  Uiso   1.00
C1     C     0.47683   0.47683   0.56951   0.01267  Uiso   1.00
C2     C     0.52317   0.52317   0.43049   0.01267  Uiso   1.00
C3     C     0.79777   0.16707   0.86809   0.01267  Uiso   1.00
C4     C     0.16707   0.16707   0.86809   0.01267  Uiso   1.00
C5     C     0.16707   0.79777   0.86809   0.01267  Uiso   1.00
C6     C     0.20223   0.83293   0.13191   0.01267  Uiso   1.00
C7     C     0.83293   0.20223   0.13191   0.01267  Uiso   1.00
C8     C     0.83293   0.83293   0.13191   0.01267  Uiso   1.00
N1     N     0.66544   0.25374   0.82708   0.01267  Uiso   1.00
N2     N     0.25374   0.25374   0.82708   0.01267  Uiso   1.00
N3     N     0.25374   0.66544   0.82708   0.01267  Uiso   1.00
N4     N     0.33456   0.74626   0.17292   0.01267  Uiso   1.00
N5     N     0.74626   0.33456   0.17292   0.01267  Uiso   1.00
N6     N     0.74626   0.74626   0.17292   0.01267  Uiso   1.00
