data_NEHNEV01_clean
_audit_creation_date              2014-07-02
_audit_creation_method            'Materials Studio'
_symmetry_space_group_name_H-M    'P1'
_symmetry_Int_Tables_number       1
_symmetry_cell_setting            triclinic
loop_
_symmetry_equiv_pos_as_xyz
  x,y,z
_cell_length_a                    8.9810
_cell_length_b                    12.2471
_cell_length_c                    15.8888
_cell_angle_alpha                 76.8270
_cell_angle_beta                  75.9530
_cell_angle_gamma                 79.3840
loop_
_atom_site_label
_atom_site_type_symbol
_atom_site_fract_x
_atom_site_fract_y
_atom_site_fract_z
_atom_site_U_iso_or_equiv
_atom_site_adp_type
_atom_site_occupancy
Zn1    Zn    0.34011   0.35332   0.44038   0.01267  Uiso   1.00
Zn2    Zn    0.65989   0.64668   0.55962   0.01267  Uiso   1.00
Zn3    Zn    0.00000   0.50000   0.50000   0.01267  Uiso   1.00
H1     H     0.72730   0.97580   0.14400   0.01267  Uiso   1.00
H2     H     0.62790   0.95860   0.07770   0.01267  Uiso   1.00
H3     H     0.10020   0.11240   0.17170   0.01267  Uiso   1.00
H4     H     0.74020   0.07910   0.94930   0.01267  Uiso   1.00
H5     H     0.86750   0.07490   0.00600   0.01267  Uiso   1.00
H6     H     0.02910   0.43550   0.70120   0.01267  Uiso   1.00
H7     H     0.21440   0.18960   0.25710   0.01267  Uiso   1.00
H8     H     0.57110   0.62940   0.26670   0.01267  Uiso   1.00
H9     H     0.65320   0.79870   0.18350   0.01267  Uiso   1.00
H10    H     0.50080   0.26350   0.01200   0.01267  Uiso   1.00
H11    H     0.46510   0.14360   0.00380   0.01267  Uiso   1.00
H12    H     0.40730   0.18590   0.09600   0.01267  Uiso   1.00
H13    H     0.60370   0.19570   0.18330   0.01267  Uiso   1.00
H14    H     0.68110   0.27830   0.09620   0.01267  Uiso   1.00
H15    H     0.70290   0.32370   0.22810   0.01267  Uiso   1.00
H16    H     0.25160   0.97010   0.29520   0.01267  Uiso   1.00
H17    H     0.16380   0.79970   0.36870   0.01267  Uiso   1.00
H18    H     0.66700   0.99100   0.38530   0.01267  Uiso   1.00
H19    H     0.94110   0.19690   0.47590   0.01267  Uiso   1.00
H20    H     0.67660   0.25800   0.48940   0.01267  Uiso   1.00
H21    H     0.96510   0.07020   0.85770   0.01267  Uiso   1.00
H22    H     0.12530   0.09770   0.71840   0.01267  Uiso   1.00
H23    H     0.44100   0.13380   0.36040   0.01267  Uiso   1.00
H24    H     0.81380   0.39800   0.31730   0.01267  Uiso   1.00
H25    H     0.82620   0.89100   0.48240   0.01267  Uiso   1.00
H26    H     0.86670   0.40900   0.84110   0.01267  Uiso   1.00
H27    H     0.27270   0.02420   0.85600   0.01267  Uiso   1.00
H28    H     0.37210   0.04140   0.92230   0.01267  Uiso   1.00
H29    H     0.89980   0.88760   0.82830   0.01267  Uiso   1.00
H30    H     0.25980   0.92090   0.05070   0.01267  Uiso   1.00
H31    H     0.13250   0.92510   0.99400   0.01267  Uiso   1.00
H32    H     0.97090   0.56450   0.29880   0.01267  Uiso   1.00
H33    H     0.78560   0.81040   0.74290   0.01267  Uiso   1.00
H34    H     0.42890   0.37060   0.73330   0.01267  Uiso   1.00
H35    H     0.34680   0.20130   0.81650   0.01267  Uiso   1.00
H36    H     0.49920   0.73650   0.98800   0.01267  Uiso   1.00
H37    H     0.53490   0.85640   0.99620   0.01267  Uiso   1.00
H38    H     0.59270   0.81410   0.90400   0.01267  Uiso   1.00
H39    H     0.39630   0.80430   0.81670   0.01267  Uiso   1.00
H40    H     0.31890   0.72170   0.90380   0.01267  Uiso   1.00
H41    H     0.29710   0.67630   0.77190   0.01267  Uiso   1.00
H42    H     0.74840   0.02990   0.70480   0.01267  Uiso   1.00
H43    H     0.83620   0.20030   0.63130   0.01267  Uiso   1.00
H44    H     0.33300   0.00900   0.61470   0.01267  Uiso   1.00
H45    H     0.05890   0.80310   0.52410   0.01267  Uiso   1.00
H46    H     0.32340   0.74200   0.51060   0.01267  Uiso   1.00
H47    H     0.03490   0.92980   0.14230   0.01267  Uiso   1.00
H48    H     0.87470   0.90230   0.28160   0.01267  Uiso   1.00
H49    H     0.55900   0.86620   0.63960   0.01267  Uiso   1.00
H50    H     0.18620   0.60200   0.68270   0.01267  Uiso   1.00
H51    H     0.17380   0.10900   0.51760   0.01267  Uiso   1.00
H52    H     0.13330   0.59100   0.15890   0.01267  Uiso   1.00
C1     C     0.64420   0.12810   0.07000   0.01267  Uiso   1.00
C2     C     0.63380   0.00640   0.11900   0.01267  Uiso   1.00
C3     C     0.90090   0.23790   0.86220   0.01267  Uiso   1.00
C4     C     0.04210   0.17040   0.20170   0.01267  Uiso   1.00
C5     C     0.77200   0.11890   0.98840   0.01267  Uiso   1.00
C6     C     0.01530   0.36100   0.73290   0.01267  Uiso   1.00
C7     C     0.88930   0.20850   0.19450   0.01267  Uiso   1.00
C8     C     0.02510   0.30200   0.29650   0.01267  Uiso   1.00
C9     C     0.11000   0.21620   0.25220   0.01267  Uiso   1.00
C10    C     0.50470   0.69870   0.27130   0.01267  Uiso   1.00
C11    C     0.55470   0.79920   0.22270   0.01267  Uiso   1.00
C12    C     0.46010   0.90030   0.23180   0.01267  Uiso   1.00
C13    C     0.19290   0.28460   0.60550   0.01267  Uiso   1.00
C14    C     0.49030   0.18550   0.04300   0.01267  Uiso   1.00
C15    C     0.68220   0.19840   0.12740   0.01267  Uiso   1.00
C16    C     0.30440   0.58970   0.37940   0.01267  Uiso   1.00
C17    C     0.80570   0.29510   0.23540   0.01267  Uiso   1.00
C18    C     0.31560   0.90050   0.28780   0.01267  Uiso   1.00
C19    C     0.26520   0.79960   0.33270   0.01267  Uiso   1.00
C20    C     0.36020   0.69740   0.32640   0.01267  Uiso   1.00
C21    C     0.64150   0.06220   0.40320   0.01267  Uiso   1.00
C22    C     0.96510   0.11680   0.48560   0.01267  Uiso   1.00
C23    C     0.86450   0.05280   0.47530   0.01267  Uiso   1.00
C24    C     0.64550   0.20930   0.46020   0.01267  Uiso   1.00
C25    C     0.09210   0.34470   0.35790   0.01267  Uiso   1.00
C26    C     0.97780   0.14470   0.82570   0.01267  Uiso   1.00
C27    C     0.07190   0.16110   0.74350   0.01267  Uiso   1.00
C28    C     0.09010   0.27020   0.69610   0.01267  Uiso   1.00
C29    C     0.51800   0.14060   0.38990   0.01267  Uiso   1.00
C30    C     0.87270   0.34010   0.28740   0.01267  Uiso   1.00
C31    C     0.89730   0.93510   0.48960   0.01267  Uiso   1.00
C32    C     0.91950   0.34540   0.81610   0.01267  Uiso   1.00
C33    C     0.35580   0.87190   0.93000   0.01267  Uiso   1.00
C34    C     0.36620   0.99360   0.88100   0.01267  Uiso   1.00
C35    C     0.09910   0.76210   0.13780   0.01267  Uiso   1.00
C36    C     0.95790   0.82960   0.79830   0.01267  Uiso   1.00
C37    C     0.22800   0.88110   0.01160   0.01267  Uiso   1.00
C38    C     0.98470   0.63900   0.26710   0.01267  Uiso   1.00
C39    C     0.11070   0.79150   0.80550   0.01267  Uiso   1.00
C40    C     0.97490   0.69800   0.70350   0.01267  Uiso   1.00
C41    C     0.89000   0.78380   0.74780   0.01267  Uiso   1.00
C42    C     0.49530   0.30130   0.72870   0.01267  Uiso   1.00
C43    C     0.44530   0.20080   0.77730   0.01267  Uiso   1.00
C44    C     0.53990   0.09970   0.76820   0.01267  Uiso   1.00
C45    C     0.80710   0.71540   0.39450   0.01267  Uiso   1.00
C46    C     0.50970   0.81450   0.95700   0.01267  Uiso   1.00
C47    C     0.31780   0.80160   0.87260   0.01267  Uiso   1.00
C48    C     0.69560   0.41030   0.62060   0.01267  Uiso   1.00
C49    C     0.19430   0.70490   0.76460   0.01267  Uiso   1.00
C50    C     0.68440   0.09950   0.71220   0.01267  Uiso   1.00
C51    C     0.73480   0.20040   0.66730   0.01267  Uiso   1.00
C52    C     0.63980   0.30260   0.67360   0.01267  Uiso   1.00
C53    C     0.35850   0.93780   0.59680   0.01267  Uiso   1.00
C54    C     0.03490   0.88320   0.51440   0.01267  Uiso   1.00
C55    C     0.13550   0.94720   0.52470   0.01267  Uiso   1.00
C56    C     0.35450   0.79070   0.53980   0.01267  Uiso   1.00
C57    C     0.90790   0.65530   0.64210   0.01267  Uiso   1.00
C58    C     0.02220   0.85530   0.17430   0.01267  Uiso   1.00
C59    C     0.92810   0.83890   0.25650   0.01267  Uiso   1.00
C60    C     0.90990   0.72980   0.30390   0.01267  Uiso   1.00
C61    C     0.48200   0.85940   0.61010   0.01267  Uiso   1.00
C62    C     0.12730   0.65990   0.71260   0.01267  Uiso   1.00
C63    C     0.10270   0.06490   0.51040   0.01267  Uiso   1.00
C64    C     0.08050   0.65460   0.18390   0.01267  Uiso   1.00
N1     N     0.72280   0.10570   0.44770   0.01267  Uiso   1.00
N2     N     0.52180   0.23190   0.42590   0.01267  Uiso   1.00
N3     N     0.27720   0.89430   0.55230   0.01267  Uiso   1.00
N4     N     0.47820   0.76810   0.57410   0.01267  Uiso   1.00
O1     O     0.49880   0.00490   0.18820   0.01267  Uiso   1.00
O2     O     0.83310   0.15360   0.14570   0.01267  Uiso   1.00
O3     O     0.23280   0.30830   0.36130   0.01267  Uiso   1.00
O4     O     0.40000   0.49920   0.37780   0.01267  Uiso   1.00
O5     O     0.00410   0.41060   0.40420   0.01267  Uiso   1.00
O6     O     0.18270   0.37700   0.55100   0.01267  Uiso   1.00
O7     O     0.28430   0.20280   0.58200   0.01267  Uiso   1.00
O8     O     0.80090   0.22990   0.94280   0.01267  Uiso   1.00
O9     O     0.16880   0.59550   0.42370   0.01267  Uiso   1.00
O10    O     0.50120   0.99510   0.81180   0.01267  Uiso   1.00
O11    O     0.16690   0.84640   0.85430   0.01267  Uiso   1.00
O12    O     0.76720   0.69170   0.63870   0.01267  Uiso   1.00
O13    O     0.60000   0.50080   0.62220   0.01267  Uiso   1.00
O14    O     0.99590   0.58940   0.59580   0.01267  Uiso   1.00
O15    O     0.81730   0.62300   0.44900   0.01267  Uiso   1.00
O16    O     0.71570   0.79720   0.41800   0.01267  Uiso   1.00
O17    O     0.19910   0.77010   0.05720   0.01267  Uiso   1.00
O18    O     0.83120   0.40450   0.57630   0.01267  Uiso   1.00
