data_NEHNEV_clean
_audit_creation_date              2014-07-02
_audit_creation_method            'Materials Studio'
_symmetry_space_group_name_H-M    'P1'
_symmetry_Int_Tables_number       1
_symmetry_cell_setting            triclinic
loop_
_symmetry_equiv_pos_as_xyz
  x,y,z
_cell_length_a                    10.6549
_cell_length_b                    14.5638
_cell_length_c                    16.0435
_cell_angle_alpha                 99.7830
_cell_angle_beta                  102.3960
_cell_angle_gamma                 101.8340
loop_
_atom_site_label
_atom_site_type_symbol
_atom_site_fract_x
_atom_site_fract_y
_atom_site_fract_z
_atom_site_U_iso_or_equiv
_atom_site_adp_type
_atom_site_occupancy
Zn1    Zn    0.22430   0.37510   0.47519   0.01267  Uiso   1.00
Zn2    Zn    0.77570   0.62490   0.52481   0.01267  Uiso   1.00
Zn3    Zn    0.00000   0.50000   0.50000   0.01267  Uiso   1.00
H1     H     0.09900   0.64190   0.29880   0.01267  Uiso   1.00
H2     H     0.42780   0.55030   0.33700   0.01267  Uiso   1.00
H3     H     0.08380   0.51240   0.70880   0.01267  Uiso   1.00
H4     H     0.11000   0.60590   0.84780   0.01267  Uiso   1.00
H5     H     0.50980   0.66630   0.88540   0.01267  Uiso   1.00
H6     H     0.47830   0.57970   0.74310   0.01267  Uiso   1.00
H7     H     0.41050   0.08420   0.59500   0.01267  Uiso   1.00
H8     H     0.54790   0.06360   0.38620   0.01267  Uiso   1.00
H9     H     0.62880   0.25720   0.46050   0.01267  Uiso   1.00
H10    H     0.27130   0.17120   0.49350   0.01267  Uiso   1.00
H11    H     0.51540   0.38510   0.45290   0.01267  Uiso   1.00
H12    H     0.51110   0.64920   0.25460   0.01267  Uiso   1.00
H13    H     0.77650   0.98550   0.23480   0.01267  Uiso   1.00
H14    H     0.53500   0.16020   0.22540   0.01267  Uiso   1.00
H15    H     0.94150   0.10610   0.33220   0.01267  Uiso   1.00
H16    H     0.70060   0.28190   0.32140   0.01267  Uiso   1.00
H17    H     0.60550   0.92740   0.08620   0.01267  Uiso   1.00
H18    H     0.59060   0.87440   0.16250   0.01267  Uiso   1.00
H19    H     0.24960   0.76670   0.09170   0.01267  Uiso   1.00
H20    H     0.32170   0.85810   0.16770   0.01267  Uiso   1.00
H21    H     0.17800   0.73470   0.21050   0.01267  Uiso   1.00
H22    H     0.49910   0.73320   0.03580   0.01267  Uiso   1.00
H23    H     0.49120   0.79620   0.96490   0.01267  Uiso   1.00
H24    H     0.33250   0.96530   0.05210   0.01267  Uiso   1.00
H25    H     0.36770   0.91940   0.96710   0.01267  Uiso   1.00
H26    H     0.24020   0.86840   0.99130   0.01267  Uiso   1.00
H27    H     0.90100   0.35810   0.70120   0.01267  Uiso   1.00
H28    H     0.57220   0.44970   0.66300   0.01267  Uiso   1.00
H29    H     0.91620   0.48760   0.29120   0.01267  Uiso   1.00
H30    H     0.89000   0.39410   0.15220   0.01267  Uiso   1.00
H31    H     0.49020   0.33370   0.11460   0.01267  Uiso   1.00
H32    H     0.52170   0.42030   0.25690   0.01267  Uiso   1.00
H33    H     0.58950   0.91580   0.40500   0.01267  Uiso   1.00
H34    H     0.45210   0.93640   0.61380   0.01267  Uiso   1.00
H35    H     0.37120   0.74280   0.53950   0.01267  Uiso   1.00
H36    H     0.72870   0.82880   0.50650   0.01267  Uiso   1.00
H37    H     0.48460   0.61490   0.54710   0.01267  Uiso   1.00
H38    H     0.48890   0.35080   0.74540   0.01267  Uiso   1.00
H39    H     0.22350   0.01450   0.76520   0.01267  Uiso   1.00
H40    H     0.46500   0.83980   0.77460   0.01267  Uiso   1.00
H41    H     0.05850   0.89390   0.66780   0.01267  Uiso   1.00
H42    H     0.29940   0.71810   0.67860   0.01267  Uiso   1.00
H43    H     0.39450   0.07260   0.91380   0.01267  Uiso   1.00
H44    H     0.40940   0.12560   0.83750   0.01267  Uiso   1.00
H45    H     0.75040   0.23330   0.90830   0.01267  Uiso   1.00
H46    H     0.67830   0.14190   0.83230   0.01267  Uiso   1.00
H47    H     0.82200   0.26530   0.78950   0.01267  Uiso   1.00
H48    H     0.50090   0.26680   0.96420   0.01267  Uiso   1.00
H49    H     0.50880   0.20380   0.03510   0.01267  Uiso   1.00
H50    H     0.66750   0.03470   0.94790   0.01267  Uiso   1.00
H51    H     0.63230   0.08060   0.03290   0.01267  Uiso   1.00
H52    H     0.75980   0.13160   0.00870   0.01267  Uiso   1.00
C1     C     0.20650   0.52590   0.38740   0.01267  Uiso   1.00
C2     C     0.25550   0.58740   0.32800   0.01267  Uiso   1.00
C3     C     0.18220   0.64220   0.28930   0.01267  Uiso   1.00
C4     C     0.37750   0.58890   0.31260   0.01267  Uiso   1.00
C5     C     0.26120   0.48010   0.62520   0.01267  Uiso   1.00
C6     C     0.27800   0.53570   0.71320   0.01267  Uiso   1.00
C7     C     0.16830   0.54440   0.74370   0.01267  Uiso   1.00
C8     C     0.18350   0.60090   0.82660   0.01267  Uiso   1.00
C9     C     0.31210   0.65000   0.87700   0.01267  Uiso   1.00
C10    C     0.42490   0.63860   0.84920   0.01267  Uiso   1.00
C11    C     0.40520   0.58400   0.76510   0.01267  Uiso   1.00
C12    C     0.44770   0.05060   0.55630   0.01267  Uiso   1.00
C13    C     0.52890   0.03840   0.43290   0.01267  Uiso   1.00
C14    C     0.47880   0.08650   0.49120   0.01267  Uiso   1.00
C15    C     0.54360   0.25530   0.46670   0.01267  Uiso   1.00
C16    C     0.34630   0.20940   0.48440   0.01267  Uiso   1.00
C17    C     0.48030   0.32480   0.46190   0.01267  Uiso   1.00
C18    C     0.42620   0.64620   0.26180   0.01267  Uiso   1.00
C19    C     0.63890   0.05790   0.22360   0.01267  Uiso   1.00
C20    C     0.75980   0.04480   0.25320   0.01267  Uiso   1.00
C21    C     0.61730   0.14910   0.24770   0.01267  Uiso   1.00
C22    C     0.94740   0.29020   0.39500   0.01267  Uiso   1.00
C23    C     0.83860   0.20880   0.33540   0.01267  Uiso   1.00
C24    C     0.85940   0.11750   0.31020   0.01267  Uiso   1.00
C25    C     0.71690   0.22220   0.30420   0.01267  Uiso   1.00
C26    C     0.54860   0.91000   0.12370   0.01267  Uiso   1.00
C27    C     0.41360   0.84780   0.06830   0.01267  Uiso   1.00
C28    C     0.33560   0.80670   0.12640   0.01267  Uiso   1.00
C29    C     0.35200   0.69810   0.22230   0.01267  Uiso   1.00
C30    C     0.22900   0.69750   0.23660   0.01267  Uiso   1.00
C31    C     0.44470   0.76830   0.00400   0.01267  Uiso   1.00
C32    C     0.33040   0.90590   0.01450   0.01267  Uiso   1.00
C33    C     0.79350   0.47410   0.61260   0.01267  Uiso   1.00
C34    C     0.74450   0.41260   0.67200   0.01267  Uiso   1.00
C35    C     0.81780   0.35780   0.71070   0.01267  Uiso   1.00
C36    C     0.62250   0.41110   0.68740   0.01267  Uiso   1.00
C37    C     0.73880   0.51990   0.37480   0.01267  Uiso   1.00
C38    C     0.72200   0.46430   0.28680   0.01267  Uiso   1.00
C39    C     0.83170   0.45560   0.25630   0.01267  Uiso   1.00
C40    C     0.81650   0.39910   0.17340   0.01267  Uiso   1.00
C41    C     0.68790   0.35000   0.12300   0.01267  Uiso   1.00
C42    C     0.57510   0.36140   0.15080   0.01267  Uiso   1.00
C43    C     0.59480   0.41600   0.23490   0.01267  Uiso   1.00
C44    C     0.55230   0.94940   0.44370   0.01267  Uiso   1.00
C45    C     0.47110   0.96160   0.56710   0.01267  Uiso   1.00
C46    C     0.52120   0.91350   0.50880   0.01267  Uiso   1.00
C47    C     0.45640   0.74470   0.53330   0.01267  Uiso   1.00
C48    C     0.65370   0.79060   0.51560   0.01267  Uiso   1.00
C49    C     0.51970   0.67520   0.53810   0.01267  Uiso   1.00
C50    C     0.57380   0.35380   0.73820   0.01267  Uiso   1.00
C51    C     0.36110   0.94210   0.77640   0.01267  Uiso   1.00
C52    C     0.24020   0.95520   0.74680   0.01267  Uiso   1.00
C53    C     0.38270   0.85090   0.75230   0.01267  Uiso   1.00
C54    C     0.05260   0.70980   0.60500   0.01267  Uiso   1.00
C55    C     0.16140   0.79120   0.66460   0.01267  Uiso   1.00
C56    C     0.14060   0.88250   0.68980   0.01267  Uiso   1.00
C57    C     0.28310   0.77780   0.69580   0.01267  Uiso   1.00
C58    C     0.45140   0.09000   0.87630   0.01267  Uiso   1.00
C59    C     0.58640   0.15220   0.93170   0.01267  Uiso   1.00
C60    C     0.66440   0.19330   0.87360   0.01267  Uiso   1.00
C61    C     0.64800   0.30190   0.77770   0.01267  Uiso   1.00
C62    C     0.77100   0.30250   0.76340   0.01267  Uiso   1.00
C63    C     0.55530   0.23170   0.99600   0.01267  Uiso   1.00
C64    C     0.66960   0.09410   0.98550   0.01267  Uiso   1.00
N1     N     0.35520   0.29380   0.47240   0.01267  Uiso   1.00
N2     N     0.45920   0.18150   0.48230   0.01267  Uiso   1.00
N3     N     0.64480   0.70620   0.52760   0.01267  Uiso   1.00
N4     N     0.54080   0.81850   0.51770   0.01267  Uiso   1.00
O1     O     0.26140   0.45910   0.39850   0.01267  Uiso   1.00
O2     O     0.36240   0.47160   0.59890   0.01267  Uiso   1.00
O3     O     0.15080   0.44290   0.57370   0.01267  Uiso   1.00
O4     O     0.91900   0.36550   0.41890   0.01267  Uiso   1.00
O5     O     0.11600   0.54440   0.41870   0.01267  Uiso   1.00
O6     O     0.31810   0.70590   0.95570   0.01267  Uiso   1.00
O7     O     0.40740   0.75170   0.17130   0.01267  Uiso   1.00
O8     O     0.53140   0.99050   0.17140   0.01267  Uiso   1.00
O9     O     0.06310   0.27460   0.41630   0.01267  Uiso   1.00
O10    O     0.73860   0.54090   0.60150   0.01267  Uiso   1.00
O11    O     0.63760   0.52840   0.40110   0.01267  Uiso   1.00
O12    O     0.84920   0.55710   0.42630   0.01267  Uiso   1.00
O13    O     0.08100   0.63450   0.58110   0.01267  Uiso   1.00
O14    O     0.88400   0.45560   0.58130   0.01267  Uiso   1.00
O15    O     0.68190   0.29410   0.04430   0.01267  Uiso   1.00
O16    O     0.59260   0.24830   0.82870   0.01267  Uiso   1.00
O17    O     0.46860   0.00950   0.82860   0.01267  Uiso   1.00
O18    O     0.93690   0.72540   0.58370   0.01267  Uiso   1.00
