data_NEJSIG_clean
_audit_creation_date              2014-07-02
_audit_creation_method            'Materials Studio'
_symmetry_space_group_name_H-M    'P1'
_symmetry_Int_Tables_number       1
_symmetry_cell_setting            triclinic
loop_
_symmetry_equiv_pos_as_xyz
  x,y,z
_cell_length_a                    7.9220
_cell_length_b                    8.9900
_cell_length_c                    10.8010
_cell_angle_alpha                 66.8900
_cell_angle_beta                  79.9000
_cell_angle_gamma                 78.5200
loop_
_atom_site_label
_atom_site_type_symbol
_atom_site_fract_x
_atom_site_fract_y
_atom_site_fract_z
_atom_site_U_iso_or_equiv
_atom_site_adp_type
_atom_site_occupancy
Cu1    Cu    0.61818   0.60203   0.95428   0.01267  Uiso   1.00
Cu2    Cu    0.38182   0.39797   0.04572   0.01267  Uiso   1.00
H1     H     0.71400   0.95200   0.08070   0.01267  Uiso   1.00
H2     H     0.06720   0.26680   0.92310   0.01267  Uiso   1.00
H3     H     0.33230   0.34850   0.45240   0.01267  Uiso   1.00
H4     H     0.68960   0.65080   0.33210   0.01267  Uiso   1.00
H5     H     0.62370   0.96260   0.77780   0.01267  Uiso   1.00
H6     H     0.74910   0.11710   0.57420   0.01267  Uiso   1.00
H7     H     0.14050   0.75500   0.62260   0.01267  Uiso   1.00
H8     H     0.99260   0.61290   0.82000   0.01267  Uiso   1.00
H9     H     0.28600   0.04800   0.91930   0.01267  Uiso   1.00
H10    H     0.93280   0.73320   0.07690   0.01267  Uiso   1.00
H11    H     0.66770   0.65150   0.54760   0.01267  Uiso   1.00
H12    H     0.31040   0.34920   0.66790   0.01267  Uiso   1.00
H13    H     0.37630   0.03740   0.22220   0.01267  Uiso   1.00
H14    H     0.25090   0.88290   0.42580   0.01267  Uiso   1.00
H15    H     0.85950   0.24500   0.37740   0.01267  Uiso   1.00
H16    H     0.00740   0.38710   0.18000   0.01267  Uiso   1.00
C1     C     0.73210   0.26540   0.01110   0.01267  Uiso   1.00
C2     C     0.53310   0.49740   0.22970   0.01267  Uiso   1.00
C3     C     0.87020   0.12790   0.00600   0.01267  Uiso   1.00
C4     C     0.82780   0.97060   0.04940   0.01267  Uiso   1.00
C5     C     0.04120   0.16090   0.95420   0.01267  Uiso   1.00
C6     C     0.51980   0.49930   0.36930   0.01267  Uiso   1.00
C7     C     0.40010   0.40850   0.47160   0.01267  Uiso   1.00
C8     C     0.61370   0.58910   0.39980   0.01267  Uiso   1.00
C9     C     0.72840   0.91740   0.74370   0.01267  Uiso   1.00
C10    C     0.80320   0.01240   0.62070   0.01267  Uiso   1.00
C11    C     0.95670   0.95240   0.56740   0.01267  Uiso   1.00
C12    C     0.03080   0.80020   0.64890   0.01267  Uiso   1.00
C13    C     0.94120   0.71660   0.76870   0.01267  Uiso   1.00
C14    C     0.26790   0.73460   0.98890   0.01267  Uiso   1.00
C15    C     0.46690   0.50260   0.77030   0.01267  Uiso   1.00
C16    C     0.12980   0.87210   0.99400   0.01267  Uiso   1.00
C17    C     0.17220   0.02940   0.95060   0.01267  Uiso   1.00
C18    C     0.95880   0.83910   0.04580   0.01267  Uiso   1.00
C19    C     0.48020   0.50070   0.63070   0.01267  Uiso   1.00
C20    C     0.59990   0.59150   0.52840   0.01267  Uiso   1.00
C21    C     0.38630   0.41090   0.60020   0.01267  Uiso   1.00
C22    C     0.27160   0.08260   0.25630   0.01267  Uiso   1.00
C23    C     0.19680   0.98760   0.37930   0.01267  Uiso   1.00
C24    C     0.04330   0.04760   0.43260   0.01267  Uiso   1.00
C25    C     0.96920   0.19980   0.35110   0.01267  Uiso   1.00
C26    C     0.05880   0.28340   0.23130   0.01267  Uiso   1.00
N1     N     0.79090   0.77040   0.81630   0.01267  Uiso   1.00
N2     N     0.20910   0.22960   0.18370   0.01267  Uiso   1.00
O1     O     0.57750   0.23540   0.04990   0.01267  Uiso   1.00
O2     O     0.78070   0.41090   0.97480   0.01267  Uiso   1.00
O3     O     0.43730   0.40970   0.21450   0.01267  Uiso   1.00
O4     O     0.63560   0.58200   0.13900   0.01267  Uiso   1.00
O5     O     0.42250   0.76460   0.95010   0.01267  Uiso   1.00
O6     O     0.21930   0.58910   0.02520   0.01267  Uiso   1.00
O7     O     0.56270   0.59030   0.78550   0.01267  Uiso   1.00
O8     O     0.36440   0.41800   0.86100   0.01267  Uiso   1.00
