data_NERSUA_clean
_audit_creation_date              2014-07-02
_audit_creation_method            'Materials Studio'
_symmetry_space_group_name_H-M    'P1'
_symmetry_Int_Tables_number       1
_symmetry_cell_setting            triclinic
loop_
_symmetry_equiv_pos_as_xyz
  x,y,z
_cell_length_a                    9.5384
_cell_length_b                    13.9010
_cell_length_c                    26.6923
_cell_angle_alpha                 96.3260
_cell_angle_beta                  90.0000
_cell_angle_gamma                 90.0000
loop_
_atom_site_label
_atom_site_type_symbol
_atom_site_fract_x
_atom_site_fract_y
_atom_site_fract_z
_atom_site_U_iso_or_equiv
_atom_site_adp_type
_atom_site_occupancy
Cu1    Cu    0.37699   0.57832   0.92554   0.01267  Uiso   1.00
Cu2    Cu    0.87699   0.92168   0.57446   0.01267  Uiso   1.00
Cu3    Cu    0.62301   0.42168   0.07446   0.01267  Uiso   1.00
Cu4    Cu    0.12301   0.07832   0.42554   0.01267  Uiso   1.00
Cu5    Cu    0.00000   0.50000   0.00000   0.01267  Uiso   1.00
Cu6    Cu    0.50000   0.00000   0.50000   0.01267  Uiso   1.00
P1     P     0.64092   0.59856   0.98652   0.01267  Uiso   1.00
P2     P     0.11669   0.68518   0.95474   0.01267  Uiso   1.00
P3     P     0.14092   0.90144   0.51348   0.01267  Uiso   1.00
P4     P     0.61669   0.81482   0.54526   0.01267  Uiso   1.00
P5     P     0.35908   0.40144   0.01348   0.01267  Uiso   1.00
P6     P     0.88331   0.31482   0.04526   0.01267  Uiso   1.00
P7     P     0.85908   0.09856   0.48652   0.01267  Uiso   1.00
P8     P     0.38331   0.18518   0.45474   0.01267  Uiso   1.00
H1     H     0.71370   0.96560   0.66690   0.01267  Uiso   1.00
H2     H     0.69470   0.07420   0.73490   0.01267  Uiso   1.00
H3     H     0.01810   0.19870   0.69320   0.01267  Uiso   1.00
H4     H     0.99100   0.11400   0.61770   0.01267  Uiso   1.00
H5     H     0.36350   0.79720   0.93880   0.01267  Uiso   1.00
H6     H     0.52170   0.77030   0.94510   0.01267  Uiso   1.00
H7     H     0.23600   0.75630   0.02640   0.01267  Uiso   1.00
H8     H     0.23210   0.64330   0.02690   0.01267  Uiso   1.00
H9     H     0.58100   0.94580   0.96250   0.01267  Uiso   1.00
H10    H     0.42220   0.97160   0.95570   0.01267  Uiso   1.00
H11    H     0.36140   0.87780   0.02240   0.01267  Uiso   1.00
H12    H     0.52030   0.85120   0.02860   0.01267  Uiso   1.00
H13    H     0.94590   0.32670   0.75210   0.01267  Uiso   1.00
H14    H     0.04780   0.24560   0.76800   0.01267  Uiso   1.00
H15    H     0.84840   0.51840   0.90220   0.01267  Uiso   1.00
H16    H     0.75970   0.25170   0.77780   0.01267  Uiso   1.00
H17    H     0.85280   0.18130   0.80630   0.01267  Uiso   1.00
H18    H     0.10550   0.32480   0.94150   0.01267  Uiso   1.00
H19    H     0.83410   0.44810   0.82430   0.01267  Uiso   1.00
H20    H     0.07650   0.23710   0.86530   0.01267  Uiso   1.00
H21    H     0.21370   0.53440   0.83310   0.01267  Uiso   1.00
H22    H     0.19470   0.42580   0.76510   0.01267  Uiso   1.00
H23    H     0.51810   0.30130   0.80680   0.01267  Uiso   1.00
H24    H     0.49100   0.38600   0.88230   0.01267  Uiso   1.00
H25    H     0.86350   0.70280   0.56120   0.01267  Uiso   1.00
H26    H     0.02170   0.72970   0.55490   0.01267  Uiso   1.00
H27    H     0.73600   0.74370   0.47360   0.01267  Uiso   1.00
H28    H     0.73210   0.85670   0.47310   0.01267  Uiso   1.00
H29    H     0.08100   0.55420   0.53750   0.01267  Uiso   1.00
H30    H     0.92220   0.52840   0.54430   0.01267  Uiso   1.00
H31    H     0.86140   0.62220   0.47760   0.01267  Uiso   1.00
H32    H     0.02030   0.64880   0.47140   0.01267  Uiso   1.00
H33    H     0.44590   0.17330   0.74790   0.01267  Uiso   1.00
H34    H     0.54780   0.25440   0.73200   0.01267  Uiso   1.00
H35    H     0.34840   0.98160   0.59780   0.01267  Uiso   1.00
H36    H     0.25970   0.24830   0.72220   0.01267  Uiso   1.00
H37    H     0.35280   0.31870   0.69370   0.01267  Uiso   1.00
H38    H     0.60550   0.17520   0.55850   0.01267  Uiso   1.00
H39    H     0.33410   0.05190   0.67570   0.01267  Uiso   1.00
H40    H     0.57650   0.26290   0.63470   0.01267  Uiso   1.00
H41    H     0.28630   0.03440   0.33310   0.01267  Uiso   1.00
H42    H     0.30530   0.92580   0.26510   0.01267  Uiso   1.00
H43    H     0.98190   0.80130   0.30680   0.01267  Uiso   1.00
H44    H     0.00900   0.88600   0.38230   0.01267  Uiso   1.00
H45    H     0.63650   0.20280   0.06120   0.01267  Uiso   1.00
H46    H     0.47830   0.22970   0.05490   0.01267  Uiso   1.00
H47    H     0.76400   0.24370   0.97360   0.01267  Uiso   1.00
H48    H     0.76790   0.35670   0.97310   0.01267  Uiso   1.00
H49    H     0.41900   0.05420   0.03750   0.01267  Uiso   1.00
H50    H     0.57780   0.02840   0.04430   0.01267  Uiso   1.00
H51    H     0.63860   0.12220   0.97760   0.01267  Uiso   1.00
H52    H     0.47970   0.14880   0.97140   0.01267  Uiso   1.00
H53    H     0.05410   0.67330   0.24790   0.01267  Uiso   1.00
H54    H     0.95220   0.75440   0.23200   0.01267  Uiso   1.00
H55    H     0.15160   0.48160   0.09780   0.01267  Uiso   1.00
H56    H     0.24030   0.74830   0.22220   0.01267  Uiso   1.00
H57    H     0.14720   0.81870   0.19370   0.01267  Uiso   1.00
H58    H     0.89450   0.67520   0.05850   0.01267  Uiso   1.00
H59    H     0.16590   0.55190   0.17570   0.01267  Uiso   1.00
H60    H     0.92350   0.76290   0.13470   0.01267  Uiso   1.00
H61    H     0.78630   0.46560   0.16690   0.01267  Uiso   1.00
H62    H     0.80530   0.57420   0.23490   0.01267  Uiso   1.00
H63    H     0.48190   0.69870   0.19320   0.01267  Uiso   1.00
H64    H     0.50900   0.61400   0.11770   0.01267  Uiso   1.00
H65    H     0.13650   0.29720   0.43880   0.01267  Uiso   1.00
H66    H     0.97830   0.27030   0.44510   0.01267  Uiso   1.00
H67    H     0.26400   0.25630   0.52640   0.01267  Uiso   1.00
H68    H     0.26790   0.14330   0.52690   0.01267  Uiso   1.00
H69    H     0.91900   0.44580   0.46250   0.01267  Uiso   1.00
H70    H     0.07780   0.47160   0.45570   0.01267  Uiso   1.00
H71    H     0.13860   0.37780   0.52240   0.01267  Uiso   1.00
H72    H     0.97970   0.35120   0.52860   0.01267  Uiso   1.00
H73    H     0.55410   0.82670   0.25210   0.01267  Uiso   1.00
H74    H     0.45220   0.74560   0.26800   0.01267  Uiso   1.00
H75    H     0.65160   0.01840   0.40220   0.01267  Uiso   1.00
H76    H     0.74030   0.75170   0.27780   0.01267  Uiso   1.00
H77    H     0.64720   0.68130   0.30630   0.01267  Uiso   1.00
H78    H     0.39450   0.82480   0.44150   0.01267  Uiso   1.00
H79    H     0.66590   0.94810   0.32430   0.01267  Uiso   1.00
H80    H     0.42350   0.73710   0.36530   0.01267  Uiso   1.00
C1     C     0.78060   0.01450   0.67080   0.01267  Uiso   1.00
C2     C     0.77110   0.07880   0.71370   0.01267  Uiso   1.00
C3     C     0.94800   0.15180   0.68890   0.01267  Uiso   1.00
C4     C     0.94080   0.09380   0.64450   0.01267  Uiso   1.00
C5     C     0.43330   0.78070   0.96280   0.01267  Uiso   1.00
C6     C     0.24660   0.69480   0.00570   0.01267  Uiso   1.00
C7     C     0.49390   0.65570   0.02070   0.01267  Uiso   1.00
C8     C     0.49260   0.95740   0.98010   0.01267  Uiso   1.00
C9     C     0.44940   0.86630   0.00460   0.01267  Uiso   1.00
C10    C     0.86080   0.14340   0.72540   0.01267  Uiso   1.00
C11    C     0.96110   0.28030   0.77610   0.01267  Uiso   1.00
C12    C     0.90000   0.46230   0.89350   0.01267  Uiso   1.00
C13    C     0.84780   0.21670   0.77700   0.01267  Uiso   1.00
C14    C     0.96260   0.33330   0.83410   0.01267  Uiso   1.00
C15    C     0.04740   0.34900   0.91790   0.01267  Uiso   1.00
C16    C     0.88920   0.42080   0.84780   0.01267  Uiso   1.00
C17    C     0.03460   0.29770   0.87140   0.01267  Uiso   1.00
C18    C     0.28060   0.48550   0.82920   0.01267  Uiso   1.00
C19    C     0.27110   0.42120   0.78630   0.01267  Uiso   1.00
C20    C     0.44800   0.34820   0.81110   0.01267  Uiso   1.00
C21    C     0.44080   0.40620   0.85550   0.01267  Uiso   1.00
C22    C     0.93330   0.71930   0.53720   0.01267  Uiso   1.00
C23    C     0.74660   0.80520   0.49430   0.01267  Uiso   1.00
C24    C     0.99390   0.84430   0.47930   0.01267  Uiso   1.00
C25    C     0.99260   0.54260   0.51990   0.01267  Uiso   1.00
C26    C     0.94940   0.63370   0.49540   0.01267  Uiso   1.00
C27    C     0.36080   0.35660   0.77460   0.01267  Uiso   1.00
C28    C     0.46110   0.21970   0.72390   0.01267  Uiso   1.00
C29    C     0.40000   0.03770   0.60650   0.01267  Uiso   1.00
C30    C     0.34780   0.28330   0.72300   0.01267  Uiso   1.00
C31    C     0.46260   0.16670   0.66590   0.01267  Uiso   1.00
C32    C     0.54740   0.15100   0.58210   0.01267  Uiso   1.00
C33    C     0.38920   0.07920   0.65220   0.01267  Uiso   1.00
C34    C     0.53460   0.20230   0.62860   0.01267  Uiso   1.00
C35    C     0.21940   0.98550   0.32920   0.01267  Uiso   1.00
C36    C     0.22890   0.92120   0.28630   0.01267  Uiso   1.00
C37    C     0.05200   0.84820   0.31110   0.01267  Uiso   1.00
C38    C     0.05920   0.90620   0.35550   0.01267  Uiso   1.00
C39    C     0.56670   0.21930   0.03720   0.01267  Uiso   1.00
C40    C     0.75340   0.30520   0.99430   0.01267  Uiso   1.00
C41    C     0.50610   0.34430   0.97930   0.01267  Uiso   1.00
C42    C     0.50740   0.04260   0.01990   0.01267  Uiso   1.00
C43    C     0.55060   0.13370   0.99540   0.01267  Uiso   1.00
C44    C     0.13920   0.85660   0.27460   0.01267  Uiso   1.00
C45    C     0.03890   0.71970   0.22390   0.01267  Uiso   1.00
C46    C     0.10000   0.53770   0.10650   0.01267  Uiso   1.00
C47    C     0.15220   0.78330   0.22300   0.01267  Uiso   1.00
C48    C     0.03740   0.66670   0.16590   0.01267  Uiso   1.00
C49    C     0.95260   0.65100   0.08210   0.01267  Uiso   1.00
C50    C     0.11080   0.57920   0.15220   0.01267  Uiso   1.00
C51    C     0.96540   0.70230   0.12860   0.01267  Uiso   1.00
C52    C     0.71940   0.51450   0.17080   0.01267  Uiso   1.00
C53    C     0.72890   0.57880   0.21370   0.01267  Uiso   1.00
C54    C     0.55200   0.65180   0.18890   0.01267  Uiso   1.00
C55    C     0.55920   0.59380   0.14450   0.01267  Uiso   1.00
C56    C     0.06670   0.28070   0.46280   0.01267  Uiso   1.00
C57    C     0.25340   0.19480   0.50570   0.01267  Uiso   1.00
C58    C     0.00610   0.15570   0.52070   0.01267  Uiso   1.00
C59    C     0.00740   0.45740   0.48010   0.01267  Uiso   1.00
C60    C     0.05060   0.36630   0.50460   0.01267  Uiso   1.00
C61    C     0.63920   0.64340   0.22540   0.01267  Uiso   1.00
C62    C     0.53890   0.78030   0.27610   0.01267  Uiso   1.00
C63    C     0.60000   0.96230   0.39350   0.01267  Uiso   1.00
C64    C     0.65220   0.71670   0.27700   0.01267  Uiso   1.00
C65    C     0.53740   0.83330   0.33410   0.01267  Uiso   1.00
C66    C     0.45260   0.84900   0.41790   0.01267  Uiso   1.00
C67    C     0.61080   0.92080   0.34780   0.01267  Uiso   1.00
C68    C     0.46540   0.79770   0.37140   0.01267  Uiso   1.00
N1     N     0.87280   0.01530   0.63560   0.01267  Uiso   1.00
N2     N     0.38980   0.68740   0.98370   0.01267  Uiso   1.00
N3     N     0.98330   0.42860   0.93040   0.01267  Uiso   1.00
N4     N     0.37280   0.48470   0.86440   0.01267  Uiso   1.00
N5     N     0.88980   0.81260   0.51630   0.01267  Uiso   1.00
N6     N     0.48330   0.07140   0.56960   0.01267  Uiso   1.00
N7     N     0.12720   0.98470   0.36440   0.01267  Uiso   1.00
N8     N     0.61020   0.31260   0.01630   0.01267  Uiso   1.00
N9     N     0.01670   0.57140   0.06960   0.01267  Uiso   1.00
N10    N     0.62720   0.51530   0.13560   0.01267  Uiso   1.00
N11    N     0.11020   0.18740   0.48370   0.01267  Uiso   1.00
N12    N     0.51670   0.92860   0.43040   0.01267  Uiso   1.00
O1     O     0.74040   0.68430   0.97580   0.01267  Uiso   1.00
O2     O     0.71500   0.52950   0.01610   0.01267  Uiso   1.00
O3     O     0.57630   0.55360   0.93710   0.01267  Uiso   1.00
O4     O     0.06590   0.78130   0.94350   0.01267  Uiso   1.00
O5     O     0.99520   0.62730   0.97263   0.01267  Uiso   1.00
O6     O     0.19370   0.62900   0.91056   0.01267  Uiso   1.00
O7     O     0.24040   0.81570   0.52420   0.01267  Uiso   1.00
O8     O     0.21500   0.97050   0.48390   0.01267  Uiso   1.00
O9     O     0.07630   0.94640   0.56290   0.01267  Uiso   1.00
O10    O     0.56590   0.71870   0.55650   0.01267  Uiso   1.00
O11    O     0.49520   0.87270   0.52737   0.01267  Uiso   1.00
O12    O     0.69370   0.87100   0.58944   0.01267  Uiso   1.00
O13    O     0.25960   0.31570   0.02420   0.01267  Uiso   1.00
O14    O     0.28500   0.47050   0.98390   0.01267  Uiso   1.00
O15    O     0.42370   0.44640   0.06290   0.01267  Uiso   1.00
O16    O     0.93410   0.21870   0.05650   0.01267  Uiso   1.00
O17    O     0.00480   0.37270   0.02737   0.01267  Uiso   1.00
O18    O     0.80630   0.37100   0.08944   0.01267  Uiso   1.00
O19    O     0.75960   0.18430   0.47580   0.01267  Uiso   1.00
O20    O     0.78500   0.02950   0.51610   0.01267  Uiso   1.00
O21    O     0.92370   0.05360   0.43710   0.01267  Uiso   1.00
O22    O     0.43410   0.28130   0.44350   0.01267  Uiso   1.00
O23    O     0.50480   0.12730   0.47263   0.01267  Uiso   1.00
O24    O     0.30630   0.12900   0.41056   0.01267  Uiso   1.00
