data_NERVIP01_clean
_audit_creation_date              2014-07-02
_audit_creation_method            'Materials Studio'
_symmetry_space_group_name_H-M    'P1'
_symmetry_Int_Tables_number       1
_symmetry_cell_setting            triclinic
loop_
_symmetry_equiv_pos_as_xyz
  x,y,z
_cell_length_a                    10.7430
_cell_length_b                    13.9780
_cell_length_c                    19.3740
_cell_angle_alpha                 90.0000
_cell_angle_beta                  90.0000
_cell_angle_gamma                 104.4200
loop_
_atom_site_label
_atom_site_type_symbol
_atom_site_fract_x
_atom_site_fract_y
_atom_site_fract_z
_atom_site_U_iso_or_equiv
_atom_site_adp_type
_atom_site_occupancy
Co1    Co    0.90920   0.64111   0.88237   0.01267  Uiso   1.00
Co2    Co    0.74550   0.79610   0.97595   0.01267  Uiso   1.00
Co3    Co    0.09080   0.85889   0.38237   0.01267  Uiso   1.00
Co4    Co    0.25450   0.70390   0.47595   0.01267  Uiso   1.00
Co5    Co    0.09080   0.35889   0.11763   0.01267  Uiso   1.00
Co6    Co    0.25450   0.20390   0.02405   0.01267  Uiso   1.00
Co7    Co    0.90920   0.14111   0.61763   0.01267  Uiso   1.00
Co8    Co    0.74550   0.29610   0.52405   0.01267  Uiso   1.00
H1     H     0.45110   0.38100   0.96310   0.01267  Uiso   1.00
H2     H     0.99170   0.47140   0.93920   0.01267  Uiso   1.00
H3     H     0.51200   0.14660   0.05080   0.01267  Uiso   1.00
H4     H     0.34220   0.45800   0.87950   0.01267  Uiso   1.00
H5     H     0.09500   0.01060   0.98120   0.01267  Uiso   1.00
H6     H     0.81250   0.48110   0.77610   0.01267  Uiso   1.00
H7     H     0.80660   0.34400   0.96550   0.01267  Uiso   1.00
H8     H     0.72880   0.19860   0.02690   0.01267  Uiso   1.00
H9     H     0.35780   0.60480   0.81940   0.01267  Uiso   1.00
H10    H     0.21740   0.89680   0.81480   0.01267  Uiso   1.00
H11    H     0.18400   0.67250   0.81480   0.01267  Uiso   1.00
H12    H     0.38310   0.03750   0.80830   0.01267  Uiso   1.00
H13    H     0.39780   0.16290   0.88650   0.01267  Uiso   1.00
H14    H     0.93750   0.76270   0.74700   0.01267  Uiso   1.00
H15    H     0.81590   0.58950   0.58570   0.01267  Uiso   1.00
H16    H     0.90940   0.74470   0.63090   0.01267  Uiso   1.00
H17    H     0.72400   0.74300   0.86900   0.01267  Uiso   1.00
H18    H     0.69900   0.64200   0.88600   0.01267  Uiso   1.00
H19    H     0.54890   0.11900   0.46310   0.01267  Uiso   1.00
H20    H     0.00830   0.02860   0.43920   0.01267  Uiso   1.00
H21    H     0.48800   0.35340   0.55080   0.01267  Uiso   1.00
H22    H     0.65780   0.04200   0.37950   0.01267  Uiso   1.00
H23    H     0.90500   0.48940   0.48120   0.01267  Uiso   1.00
H24    H     0.18750   0.01890   0.27610   0.01267  Uiso   1.00
H25    H     0.19340   0.15600   0.46550   0.01267  Uiso   1.00
H26    H     0.27120   0.30140   0.52690   0.01267  Uiso   1.00
H27    H     0.64220   0.89520   0.31940   0.01267  Uiso   1.00
H28    H     0.78260   0.60320   0.31480   0.01267  Uiso   1.00
H29    H     0.81600   0.82750   0.31480   0.01267  Uiso   1.00
H30    H     0.61690   0.46250   0.30830   0.01267  Uiso   1.00
H31    H     0.60220   0.33710   0.38650   0.01267  Uiso   1.00
H32    H     0.06250   0.73730   0.24700   0.01267  Uiso   1.00
H33    H     0.18410   0.91050   0.08570   0.01267  Uiso   1.00
H34    H     0.09060   0.75530   0.13090   0.01267  Uiso   1.00
H35    H     0.27600   0.75700   0.36900   0.01267  Uiso   1.00
H36    H     0.30100   0.85800   0.38600   0.01267  Uiso   1.00
H37    H     0.54890   0.61900   0.03690   0.01267  Uiso   1.00
H38    H     0.00830   0.52860   0.06080   0.01267  Uiso   1.00
H39    H     0.48800   0.85340   0.94920   0.01267  Uiso   1.00
H40    H     0.65780   0.54200   0.12050   0.01267  Uiso   1.00
H41    H     0.90500   0.98940   0.01880   0.01267  Uiso   1.00
H42    H     0.18750   0.51890   0.22390   0.01267  Uiso   1.00
H43    H     0.19340   0.65600   0.03450   0.01267  Uiso   1.00
H44    H     0.27120   0.80140   0.97310   0.01267  Uiso   1.00
H45    H     0.64220   0.39520   0.18060   0.01267  Uiso   1.00
H46    H     0.78260   0.10320   0.18520   0.01267  Uiso   1.00
H47    H     0.81600   0.32750   0.18520   0.01267  Uiso   1.00
H48    H     0.61690   0.96250   0.19170   0.01267  Uiso   1.00
H49    H     0.60220   0.83710   0.11350   0.01267  Uiso   1.00
H50    H     0.06250   0.23730   0.25300   0.01267  Uiso   1.00
H51    H     0.18410   0.41050   0.41430   0.01267  Uiso   1.00
H52    H     0.09060   0.25530   0.36910   0.01267  Uiso   1.00
H53    H     0.27600   0.25700   0.13100   0.01267  Uiso   1.00
H54    H     0.30100   0.35800   0.11400   0.01267  Uiso   1.00
H55    H     0.45110   0.88100   0.53690   0.01267  Uiso   1.00
H56    H     0.99170   0.97140   0.56080   0.01267  Uiso   1.00
H57    H     0.51200   0.64660   0.44920   0.01267  Uiso   1.00
H58    H     0.34220   0.95800   0.62050   0.01267  Uiso   1.00
H59    H     0.09500   0.51060   0.51880   0.01267  Uiso   1.00
H60    H     0.81250   0.98110   0.72390   0.01267  Uiso   1.00
H61    H     0.80660   0.84400   0.53450   0.01267  Uiso   1.00
H62    H     0.72880   0.69860   0.47310   0.01267  Uiso   1.00
H63    H     0.35780   0.10480   0.68060   0.01267  Uiso   1.00
H64    H     0.21740   0.39680   0.68520   0.01267  Uiso   1.00
H65    H     0.18400   0.17250   0.68520   0.01267  Uiso   1.00
H66    H     0.38310   0.53750   0.69170   0.01267  Uiso   1.00
H67    H     0.39780   0.66290   0.61350   0.01267  Uiso   1.00
H68    H     0.93750   0.26270   0.75300   0.01267  Uiso   1.00
H69    H     0.81590   0.08950   0.91430   0.01267  Uiso   1.00
H70    H     0.90940   0.24470   0.86910   0.01267  Uiso   1.00
H71    H     0.72400   0.24300   0.63100   0.01267  Uiso   1.00
H72    H     0.69900   0.14200   0.61400   0.01267  Uiso   1.00
C1     C     0.13560   0.93980   0.89932   0.01267  Uiso   1.00
C2     C     0.63450   0.37730   0.95634   0.01267  Uiso   1.00
C3     C     0.50760   0.34290   0.97485   0.01267  Uiso   1.00
C4     C     0.06550   0.49730   0.91349   0.01267  Uiso   1.00
C5     C     0.80230   0.51800   0.67732   0.01267  Uiso   1.00
C6     C     0.54280   0.20570   0.02720   0.01267  Uiso   1.00
C7     C     0.16370   0.44950   0.91684   0.01267  Uiso   1.00
C8     C     0.27470   0.48870   0.87970   0.01267  Uiso   1.00
C9     C     0.15290   0.01690   0.94474   0.01267  Uiso   1.00
C10    C     0.82930   0.53500   0.74633   0.01267  Uiso   1.00
C11    C     0.71980   0.32270   0.97630   0.01267  Uiso   1.00
C12    C     0.67330   0.23620   0.01250   0.01267  Uiso   1.00
C13    C     0.28270   0.57480   0.84290   0.01267  Uiso   1.00
C14    C     0.22410   0.94740   0.84680   0.01267  Uiso   1.00
C15    C     0.17850   0.61600   0.84120   0.01267  Uiso   1.00
C16    C     0.32190   0.03120   0.84300   0.01267  Uiso   1.00
C17    C     0.33070   0.10640   0.89020   0.01267  Uiso   1.00
C18    C     0.90450   0.69970   0.72920   0.01267  Uiso   1.00
C19    C     0.83200   0.59790   0.63280   0.01267  Uiso   1.00
C20    C     0.88600   0.68990   0.65970   0.01267  Uiso   1.00
C21    C     0.15030   0.36300   0.96460   0.01267  Uiso   1.00
C22    C     0.02460   0.85100   0.90797   0.01267  Uiso   1.00
C23    C     0.74680   0.41500   0.65100   0.01267  Uiso   1.00
C24    C     0.67610   0.47310   0.91852   0.01267  Uiso   1.00
C25    C     0.86440   0.56020   0.39932   0.01267  Uiso   1.00
C26    C     0.36550   0.12270   0.45634   0.01267  Uiso   1.00
C27    C     0.49240   0.15710   0.47485   0.01267  Uiso   1.00
C28    C     0.93450   0.00270   0.41349   0.01267  Uiso   1.00
C29    C     0.19770   0.98200   0.17732   0.01267  Uiso   1.00
C30    C     0.45720   0.29430   0.52720   0.01267  Uiso   1.00
C31    C     0.83630   0.05050   0.41684   0.01267  Uiso   1.00
C32    C     0.72530   0.01130   0.37970   0.01267  Uiso   1.00
C33    C     0.84710   0.48310   0.44474   0.01267  Uiso   1.00
C34    C     0.17070   0.96500   0.24633   0.01267  Uiso   1.00
C35    C     0.28020   0.17730   0.47630   0.01267  Uiso   1.00
C36    C     0.32670   0.26380   0.51250   0.01267  Uiso   1.00
C37    C     0.71730   0.92520   0.34290   0.01267  Uiso   1.00
C38    C     0.77590   0.55260   0.34680   0.01267  Uiso   1.00
C39    C     0.82150   0.88400   0.34120   0.01267  Uiso   1.00
C40    C     0.67810   0.46880   0.34300   0.01267  Uiso   1.00
C41    C     0.66930   0.39360   0.39020   0.01267  Uiso   1.00
C42    C     0.09550   0.80030   0.22920   0.01267  Uiso   1.00
C43    C     0.16800   0.90210   0.13280   0.01267  Uiso   1.00
C44    C     0.11400   0.81010   0.15970   0.01267  Uiso   1.00
C45    C     0.84970   0.13700   0.46460   0.01267  Uiso   1.00
C46    C     0.97540   0.64900   0.40797   0.01267  Uiso   1.00
C47    C     0.25320   0.08500   0.15100   0.01267  Uiso   1.00
C48    C     0.32390   0.02690   0.41852   0.01267  Uiso   1.00
C49    C     0.86440   0.06020   0.10068   0.01267  Uiso   1.00
C50    C     0.36550   0.62270   0.04366   0.01267  Uiso   1.00
C51    C     0.49240   0.65710   0.02515   0.01267  Uiso   1.00
C52    C     0.93450   0.50270   0.08651   0.01267  Uiso   1.00
C53    C     0.19770   0.48200   0.32268   0.01267  Uiso   1.00
C54    C     0.45720   0.79430   0.97280   0.01267  Uiso   1.00
C55    C     0.83630   0.55050   0.08316   0.01267  Uiso   1.00
C56    C     0.72530   0.51130   0.12030   0.01267  Uiso   1.00
C57    C     0.84710   0.98310   0.05526   0.01267  Uiso   1.00
C58    C     0.17070   0.46500   0.25367   0.01267  Uiso   1.00
C59    C     0.28020   0.67730   0.02370   0.01267  Uiso   1.00
C60    C     0.32670   0.76380   0.98750   0.01267  Uiso   1.00
C61    C     0.71730   0.42520   0.15710   0.01267  Uiso   1.00
C62    C     0.77590   0.05260   0.15320   0.01267  Uiso   1.00
C63    C     0.82150   0.38400   0.15880   0.01267  Uiso   1.00
C64    C     0.67810   0.96880   0.15700   0.01267  Uiso   1.00
C65    C     0.66930   0.89360   0.10980   0.01267  Uiso   1.00
C66    C     0.09550   0.30030   0.27080   0.01267  Uiso   1.00
C67    C     0.16800   0.40210   0.36720   0.01267  Uiso   1.00
C68    C     0.11400   0.31010   0.34030   0.01267  Uiso   1.00
C69    C     0.84970   0.63700   0.03540   0.01267  Uiso   1.00
C70    C     0.97540   0.14900   0.09203   0.01267  Uiso   1.00
C71    C     0.25320   0.58500   0.34900   0.01267  Uiso   1.00
C72    C     0.32390   0.52690   0.08148   0.01267  Uiso   1.00
C73    C     0.13560   0.43980   0.60068   0.01267  Uiso   1.00
C74    C     0.63450   0.87730   0.54366   0.01267  Uiso   1.00
C75    C     0.50760   0.84290   0.52515   0.01267  Uiso   1.00
C76    C     0.06550   0.99730   0.58651   0.01267  Uiso   1.00
C77    C     0.80230   0.01800   0.82268   0.01267  Uiso   1.00
C78    C     0.54280   0.70570   0.47280   0.01267  Uiso   1.00
C79    C     0.16370   0.94950   0.58316   0.01267  Uiso   1.00
C80    C     0.27470   0.98870   0.62030   0.01267  Uiso   1.00
C81    C     0.15290   0.51690   0.55526   0.01267  Uiso   1.00
C82    C     0.82930   0.03500   0.75367   0.01267  Uiso   1.00
C83    C     0.71980   0.82270   0.52370   0.01267  Uiso   1.00
C84    C     0.67330   0.73620   0.48750   0.01267  Uiso   1.00
C85    C     0.28270   0.07480   0.65710   0.01267  Uiso   1.00
C86    C     0.22410   0.44740   0.65320   0.01267  Uiso   1.00
C87    C     0.17850   0.11600   0.65880   0.01267  Uiso   1.00
C88    C     0.32190   0.53120   0.65700   0.01267  Uiso   1.00
C89    C     0.33070   0.60640   0.60980   0.01267  Uiso   1.00
C90    C     0.90450   0.19970   0.77080   0.01267  Uiso   1.00
C91    C     0.83200   0.09790   0.86720   0.01267  Uiso   1.00
C92    C     0.88600   0.18990   0.84030   0.01267  Uiso   1.00
C93    C     0.15030   0.86300   0.53540   0.01267  Uiso   1.00
C94    C     0.02460   0.35100   0.59203   0.01267  Uiso   1.00
C95    C     0.74680   0.91500   0.84900   0.01267  Uiso   1.00
C96    C     0.67610   0.97310   0.58148   0.01267  Uiso   1.00
N1     N     0.46010   0.25800   0.00861   0.01267  Uiso   1.00
N2     N     0.06970   0.57770   0.87598   0.01267  Uiso   1.00
N3     N     0.24520   0.10030   0.94132   0.01267  Uiso   1.00
N4     N     0.87810   0.62440   0.77273   0.01267  Uiso   1.00
N5     N     0.53990   0.24200   0.50861   0.01267  Uiso   1.00
N6     N     0.93030   0.92230   0.37598   0.01267  Uiso   1.00
N7     N     0.75480   0.39970   0.44132   0.01267  Uiso   1.00
N8     N     0.12190   0.87560   0.27273   0.01267  Uiso   1.00
N9     N     0.53990   0.74200   0.99139   0.01267  Uiso   1.00
N10    N     0.93030   0.42230   0.12402   0.01267  Uiso   1.00
N11    N     0.75480   0.89970   0.05868   0.01267  Uiso   1.00
N12    N     0.12190   0.37560   0.22727   0.01267  Uiso   1.00
N13    N     0.46010   0.75800   0.49139   0.01267  Uiso   1.00
N14    N     0.06970   0.07770   0.62402   0.01267  Uiso   1.00
N15    N     0.24520   0.60030   0.55868   0.01267  Uiso   1.00
N16    N     0.87810   0.12440   0.72727   0.01267  Uiso   1.00
O1     O     0.73920   0.69797   0.88948   0.01267  Uiso   1.00
O2     O     0.22900   0.31121   0.95777   0.01267  Uiso   1.00
O3     O     0.06210   0.35079   0.00907   0.01267  Uiso   1.00
O4     O     0.94360   0.85723   0.95245   0.01267  Uiso   1.00
O5     O     0.02420   0.77943   0.86899   0.01267  Uiso   1.00
O6     O     0.71670   0.40673   0.58834   0.01267  Uiso   1.00
O7     O     0.73800   0.34530   0.69301   0.01267  Uiso   1.00
O8     O     0.79480   0.50129   0.90396   0.01267  Uiso   1.00
O9     O     0.59440   0.51940   0.90490   0.01267  Uiso   1.00
O10    O     0.26080   0.80203   0.38948   0.01267  Uiso   1.00
O11    O     0.77100   0.18879   0.45777   0.01267  Uiso   1.00
O12    O     0.93790   0.14921   0.50907   0.01267  Uiso   1.00
O13    O     0.05640   0.64277   0.45245   0.01267  Uiso   1.00
O14    O     0.97580   0.72057   0.36899   0.01267  Uiso   1.00
O15    O     0.28330   0.09327   0.08834   0.01267  Uiso   1.00
O16    O     0.26200   0.15470   0.19301   0.01267  Uiso   1.00
O17    O     0.20520   0.99871   0.40396   0.01267  Uiso   1.00
O18    O     0.40560   0.98060   0.40490   0.01267  Uiso   1.00
O19    O     0.26080   0.30203   0.11052   0.01267  Uiso   1.00
O20    O     0.77100   0.68879   0.04223   0.01267  Uiso   1.00
O21    O     0.93790   0.64921   0.99093   0.01267  Uiso   1.00
O22    O     0.05640   0.14277   0.04755   0.01267  Uiso   1.00
O23    O     0.97580   0.22057   0.13101   0.01267  Uiso   1.00
O24    O     0.28330   0.59327   0.41166   0.01267  Uiso   1.00
O25    O     0.26200   0.65470   0.30699   0.01267  Uiso   1.00
O26    O     0.20520   0.49871   0.09604   0.01267  Uiso   1.00
O27    O     0.40560   0.48060   0.09510   0.01267  Uiso   1.00
O28    O     0.73920   0.19797   0.61052   0.01267  Uiso   1.00
O29    O     0.22900   0.81121   0.54223   0.01267  Uiso   1.00
O30    O     0.06210   0.85079   0.49093   0.01267  Uiso   1.00
O31    O     0.94360   0.35723   0.54755   0.01267  Uiso   1.00
O32    O     0.02420   0.27943   0.63101   0.01267  Uiso   1.00
O33    O     0.71670   0.90673   0.91166   0.01267  Uiso   1.00
O34    O     0.73800   0.84530   0.80699   0.01267  Uiso   1.00
O35    O     0.79480   0.00129   0.59604   0.01267  Uiso   1.00
O36    O     0.59440   0.01940   0.59510   0.01267  Uiso   1.00
