data_NERVIP_clean
_audit_creation_date              2014-07-02
_audit_creation_method            'Materials Studio'
_symmetry_space_group_name_H-M    'P1'
_symmetry_Int_Tables_number       1
_symmetry_cell_setting            triclinic
loop_
_symmetry_equiv_pos_as_xyz
  x,y,z
_cell_length_a                    10.5070
_cell_length_b                    11.8240
_cell_length_c                    14.0843
_cell_angle_alpha                 106.0770
_cell_angle_beta                  103.2210
_cell_angle_gamma                 111.1050
loop_
_atom_site_label
_atom_site_type_symbol
_atom_site_fract_x
_atom_site_fract_y
_atom_site_fract_z
_atom_site_U_iso_or_equiv
_atom_site_adp_type
_atom_site_occupancy
Co1    Co    0.01889   0.72174   0.21212   0.01267  Uiso   1.00
Co2    Co    0.23909   0.45829   0.68902   0.01267  Uiso   1.00
Co3    Co    0.98111   0.27826   0.78788   0.01267  Uiso   1.00
Co4    Co    0.76091   0.54171   0.31098   0.01267  Uiso   1.00
H1     H     0.49380   0.43560   0.61360   0.01267  Uiso   1.00
H2     H     0.73540   0.48290   0.68000   0.01267  Uiso   1.00
H3     H     0.86520   0.59170   0.86210   0.01267  Uiso   1.00
H4     H     0.49200   0.56650   0.89810   0.01267  Uiso   1.00
H5     H     0.48430   0.74220   0.74800   0.01267  Uiso   1.00
H6     H     0.53710   0.90470   0.68560   0.01267  Uiso   1.00
H7     H     0.37080   0.87810   0.53000   0.01267  Uiso   1.00
H8     H     0.12080   0.51750   0.50450   0.01267  Uiso   1.00
H9     H     0.10830   0.94530   0.13330   0.01267  Uiso   1.00
H10    H     0.18150   0.16790   0.18730   0.01267  Uiso   1.00
H11    H     0.21660   0.28980   0.36030   0.01267  Uiso   1.00
H12    H     0.10880   0.96000   0.41280   0.01267  Uiso   1.00
H13    H     0.36600   0.83560   0.28940   0.01267  Uiso   1.00
H14    H     0.54040   0.82930   0.22010   0.01267  Uiso   1.00
H15    H     0.47200   0.72130   0.03740   0.01267  Uiso   1.00
H16    H     0.05680   0.61610   0.01120   0.01267  Uiso   1.00
H17    H     0.79280   0.69370   0.21170   0.01267  Uiso   1.00
H18    H     0.83620   0.75900   0.31010   0.01267  Uiso   1.00
H19    H     0.50620   0.56440   0.38640   0.01267  Uiso   1.00
H20    H     0.26460   0.51710   0.32000   0.01267  Uiso   1.00
H21    H     0.13480   0.40830   0.13790   0.01267  Uiso   1.00
H22    H     0.50800   0.43350   0.10190   0.01267  Uiso   1.00
H23    H     0.51570   0.25780   0.25200   0.01267  Uiso   1.00
H24    H     0.46290   0.09530   0.31440   0.01267  Uiso   1.00
H25    H     0.62920   0.12190   0.47000   0.01267  Uiso   1.00
H26    H     0.87920   0.48250   0.49550   0.01267  Uiso   1.00
H27    H     0.89170   0.05470   0.86670   0.01267  Uiso   1.00
H28    H     0.81850   0.83210   0.81270   0.01267  Uiso   1.00
H29    H     0.78340   0.71020   0.63970   0.01267  Uiso   1.00
H30    H     0.89120   0.04000   0.58720   0.01267  Uiso   1.00
H31    H     0.63400   0.16440   0.71060   0.01267  Uiso   1.00
H32    H     0.45960   0.17070   0.77990   0.01267  Uiso   1.00
H33    H     0.52800   0.27870   0.96260   0.01267  Uiso   1.00
H34    H     0.94320   0.38390   0.98880   0.01267  Uiso   1.00
H35    H     0.20720   0.30630   0.78830   0.01267  Uiso   1.00
H36    H     0.16380   0.24100   0.68990   0.01267  Uiso   1.00
C1     C     0.54300   0.47350   0.68680   0.01267  Uiso   1.00
C2     C     0.68880   0.50400   0.72600   0.01267  Uiso   1.00
C3     C     0.76530   0.56630   0.83420   0.01267  Uiso   1.00
C4     C     0.69080   0.59000   0.89990   0.01267  Uiso   1.00
C5     C     0.54270   0.55190   0.85360   0.01267  Uiso   1.00
C6     C     0.76220   0.65320   0.01950   0.01267  Uiso   1.00
C7     C     0.41870   0.72860   0.68420   0.01267  Uiso   1.00
C8     C     0.44980   0.82710   0.64820   0.01267  Uiso   1.00
C9     C     0.35100   0.81150   0.55550   0.01267  Uiso   1.00
C10    C     0.22300   0.69530   0.50230   0.01267  Uiso   1.00
C11    C     0.20410   0.59810   0.54230   0.01267  Uiso   1.00
C12    C     0.10510   0.67270   0.40570   0.01267  Uiso   1.00
C13    C     0.12250   0.99370   0.20260   0.01267  Uiso   1.00
C14    C     0.16650   0.12720   0.23430   0.01267  Uiso   1.00
C15    C     0.18770   0.19960   0.33710   0.01267  Uiso   1.00
C16    C     0.16580   0.13640   0.40470   0.01267  Uiso   1.00
C17    C     0.12260   0.00260   0.36680   0.01267  Uiso   1.00
C18    C     0.18430   0.20880   0.51760   0.01267  Uiso   1.00
C19    C     0.33710   0.78980   0.21670   0.01267  Uiso   1.00
C20    C     0.44230   0.78720   0.17570   0.01267  Uiso   1.00
C21    C     0.40150   0.72130   0.06710   0.01267  Uiso   1.00
C22    C     0.25490   0.65590   0.00430   0.01267  Uiso   1.00
C23    C     0.15610   0.66190   0.05320   0.01267  Uiso   1.00
C24    C     0.19530   0.57020   0.88800   0.01267  Uiso   1.00
C25    C     0.45700   0.52650   0.31320   0.01267  Uiso   1.00
C26    C     0.31120   0.49600   0.27400   0.01267  Uiso   1.00
C27    C     0.23470   0.43370   0.16580   0.01267  Uiso   1.00
C28    C     0.30920   0.41000   0.10010   0.01267  Uiso   1.00
C29    C     0.45730   0.44810   0.14640   0.01267  Uiso   1.00
C30    C     0.23780   0.34680   0.98050   0.01267  Uiso   1.00
C31    C     0.58130   0.27140   0.31580   0.01267  Uiso   1.00
C32    C     0.55020   0.17290   0.35180   0.01267  Uiso   1.00
C33    C     0.64900   0.18850   0.44450   0.01267  Uiso   1.00
C34    C     0.77700   0.30470   0.49770   0.01267  Uiso   1.00
C35    C     0.79590   0.40190   0.45770   0.01267  Uiso   1.00
C36    C     0.89490   0.32730   0.59430   0.01267  Uiso   1.00
C37    C     0.87750   0.00630   0.79740   0.01267  Uiso   1.00
C38    C     0.83350   0.87280   0.76570   0.01267  Uiso   1.00
C39    C     0.81230   0.80040   0.66290   0.01267  Uiso   1.00
C40    C     0.83420   0.86360   0.59530   0.01267  Uiso   1.00
C41    C     0.87740   0.99740   0.63320   0.01267  Uiso   1.00
C42    C     0.81570   0.79120   0.48240   0.01267  Uiso   1.00
C43    C     0.66290   0.21020   0.78330   0.01267  Uiso   1.00
C44    C     0.55770   0.21280   0.82430   0.01267  Uiso   1.00
C45    C     0.59850   0.27870   0.93290   0.01267  Uiso   1.00
C46    C     0.74510   0.34410   0.99570   0.01267  Uiso   1.00
C47    C     0.84390   0.33810   0.94680   0.01267  Uiso   1.00
C48    C     0.80470   0.42980   0.11200   0.01267  Uiso   1.00
N1     N     0.46870   0.49590   0.74940   0.01267  Uiso   1.00
N2     N     0.29870   0.61360   0.63200   0.01267  Uiso   1.00
N3     N     0.09960   0.93100   0.26690   0.01267  Uiso   1.00
N4     N     0.19380   0.72900   0.15660   0.01267  Uiso   1.00
N5     N     0.53130   0.50410   0.25060   0.01267  Uiso   1.00
N6     N     0.70130   0.38640   0.36800   0.01267  Uiso   1.00
N7     N     0.90040   0.06900   0.73310   0.01267  Uiso   1.00
N8     N     0.80620   0.27100   0.84340   0.01267  Uiso   1.00
O1     O     0.89660   0.69530   0.05960   0.01267  Uiso   1.00
O2     O     0.67920   0.65680   0.06960   0.01267  Uiso   1.00
O3     O     0.14220   0.74800   0.35890   0.01267  Uiso   1.00
O4     O     0.98010   0.58180   0.38100   0.01267  Uiso   1.00
O5     O     0.21130   0.32810   0.54380   0.01267  Uiso   1.00
O6     O     0.17210   0.14580   0.57600   0.01267  Uiso   1.00
O7     O     0.06490   0.48440   0.84990   0.01267  Uiso   1.00
O8     O     0.28100   0.59040   0.83810   0.01267  Uiso   1.00
O9     O     0.83130   0.69960   0.25760   0.01267  Uiso   1.00
O10    O     0.10340   0.30470   0.94040   0.01267  Uiso   1.00
O11    O     0.32080   0.34320   0.93040   0.01267  Uiso   1.00
O12    O     0.85780   0.25200   0.64110   0.01267  Uiso   1.00
O13    O     0.01990   0.41820   0.61900   0.01267  Uiso   1.00
O14    O     0.78870   0.67190   0.45620   0.01267  Uiso   1.00
O15    O     0.82790   0.85420   0.42400   0.01267  Uiso   1.00
O16    O     0.93510   0.51560   0.15010   0.01267  Uiso   1.00
O17    O     0.71900   0.40960   0.16190   0.01267  Uiso   1.00
O18    O     0.16870   0.30040   0.74240   0.01267  Uiso   1.00
