data_NESSOV_clean
_audit_creation_date              2014-07-02
_audit_creation_method            'Materials Studio'
_symmetry_space_group_name_H-M    'P1'
_symmetry_Int_Tables_number       1
_symmetry_cell_setting            triclinic
loop_
_symmetry_equiv_pos_as_xyz
  x,y,z
_cell_length_a                    14.7600
_cell_length_b                    15.2653
_cell_length_c                    15.2653
_cell_angle_alpha                 100.9990
_cell_angle_beta                  112.5490
_cell_angle_gamma                 112.5490
loop_
_atom_site_label
_atom_site_type_symbol
_atom_site_fract_x
_atom_site_fract_y
_atom_site_fract_z
_atom_site_U_iso_or_equiv
_atom_site_adp_type
_atom_site_occupancy
Co1    Co    0.36879   0.27790   0.83171   0.01267  Uiso   1.00
Co2    Co    0.13121   0.16829   0.72210   0.01267  Uiso   1.00
Co3    Co    0.63121   0.72210   0.16829   0.01267  Uiso   1.00
Co4    Co    0.86879   0.83171   0.27790   0.01267  Uiso   1.00
H1     H     0.40860   0.32140   0.14160   0.01267  Uiso   1.00
H2     H     0.40720   0.31140   0.28760   0.01267  Uiso   1.00
H3     H     0.07380   0.11260   0.12180   0.01267  Uiso   1.00
H4     H     0.07470   0.12750   0.97610   0.01267  Uiso   1.00
H5     H     0.40730   0.25700   0.40700   0.01267  Uiso   1.00
H6     H     0.40930   0.25690   0.55750   0.01267  Uiso   1.00
H7     H     0.07430   0.13750   0.41270   0.01267  Uiso   1.00
H8     H     0.07290   0.14250   0.26430   0.01267  Uiso   1.00
H9     H     0.56160   0.23770   0.86550   0.01267  Uiso   1.00
H10    H     0.75140   0.32280   0.92100   0.01267  Uiso   1.00
H11    H     0.75450   0.58830   0.99830   0.01267  Uiso   1.00
H12    H     0.56350   0.49670   0.93630   0.01267  Uiso   1.00
H13    H     0.04440   0.66330   0.09890   0.01267  Uiso   1.00
H14    H     0.94060   0.67290   0.03090   0.01267  Uiso   1.00
H15    H     0.94980   0.64780   0.12780   0.01267  Uiso   1.00
H16    H     0.09140   0.85840   0.67860   0.01267  Uiso   1.00
H17    H     0.09280   0.71240   0.68860   0.01267  Uiso   1.00
H18    H     0.42620   0.87820   0.88740   0.01267  Uiso   1.00
H19    H     0.42530   0.02390   0.87250   0.01267  Uiso   1.00
H20    H     0.09270   0.59300   0.74300   0.01267  Uiso   1.00
H21    H     0.09070   0.44250   0.74310   0.01267  Uiso   1.00
H22    H     0.42570   0.58730   0.86250   0.01267  Uiso   1.00
H23    H     0.42710   0.73570   0.85750   0.01267  Uiso   1.00
H24    H     0.93840   0.13450   0.76230   0.01267  Uiso   1.00
H25    H     0.74860   0.07900   0.67720   0.01267  Uiso   1.00
H26    H     0.74550   0.00170   0.41170   0.01267  Uiso   1.00
H27    H     0.93650   0.06370   0.50330   0.01267  Uiso   1.00
H28    H     0.45560   0.90110   0.33670   0.01267  Uiso   1.00
H29    H     0.55940   0.96910   0.32710   0.01267  Uiso   1.00
H30    H     0.55020   0.87220   0.35220   0.01267  Uiso   1.00
H31    H     0.59140   0.67860   0.85840   0.01267  Uiso   1.00
H32    H     0.59280   0.68860   0.71240   0.01267  Uiso   1.00
H33    H     0.92620   0.88740   0.87820   0.01267  Uiso   1.00
H34    H     0.92530   0.87250   0.02390   0.01267  Uiso   1.00
H35    H     0.59270   0.74300   0.59300   0.01267  Uiso   1.00
H36    H     0.59070   0.74310   0.44250   0.01267  Uiso   1.00
H37    H     0.92570   0.86250   0.58730   0.01267  Uiso   1.00
H38    H     0.92710   0.85750   0.73570   0.01267  Uiso   1.00
H39    H     0.43840   0.76230   0.13450   0.01267  Uiso   1.00
H40    H     0.24860   0.67720   0.07900   0.01267  Uiso   1.00
H41    H     0.24550   0.41170   0.00170   0.01267  Uiso   1.00
H42    H     0.43650   0.50330   0.06370   0.01267  Uiso   1.00
H43    H     0.95560   0.33670   0.90110   0.01267  Uiso   1.00
H44    H     0.05940   0.32710   0.96910   0.01267  Uiso   1.00
H45    H     0.05020   0.35220   0.87220   0.01267  Uiso   1.00
H46    H     0.90860   0.14160   0.32140   0.01267  Uiso   1.00
H47    H     0.90720   0.28760   0.31140   0.01267  Uiso   1.00
H48    H     0.57380   0.12180   0.11260   0.01267  Uiso   1.00
H49    H     0.57470   0.97610   0.12750   0.01267  Uiso   1.00
H50    H     0.90730   0.40700   0.25700   0.01267  Uiso   1.00
H51    H     0.90930   0.55750   0.25690   0.01267  Uiso   1.00
H52    H     0.57430   0.41270   0.13750   0.01267  Uiso   1.00
H53    H     0.57290   0.26430   0.14250   0.01267  Uiso   1.00
H54    H     0.06160   0.86550   0.23770   0.01267  Uiso   1.00
H55    H     0.25140   0.92100   0.32280   0.01267  Uiso   1.00
H56    H     0.25450   0.99830   0.58830   0.01267  Uiso   1.00
H57    H     0.06350   0.93630   0.49670   0.01267  Uiso   1.00
H58    H     0.54440   0.09890   0.66330   0.01267  Uiso   1.00
H59    H     0.44060   0.03090   0.67290   0.01267  Uiso   1.00
H60    H     0.44980   0.12780   0.64780   0.01267  Uiso   1.00
C1     C     0.24307   0.22925   0.94507   0.01267  Uiso   1.00
C2     C     0.24123   0.22497   0.04155   0.01267  Uiso   1.00
C3     C     0.34041   0.27962   0.13720   0.01267  Uiso   1.00
C4     C     0.33948   0.27305   0.22471   0.01267  Uiso   1.00
C5     C     0.23996   0.21050   0.22276   0.01267  Uiso   1.00
C6     C     0.14193   0.15595   0.12687   0.01267  Uiso   1.00
C7     C     0.14259   0.16405   0.03889   0.01267  Uiso   1.00
C8     C     0.23989   0.20424   0.31832   0.01267  Uiso   1.00
C9     C     0.33984   0.23545   0.40823   0.01267  Uiso   1.00
C10    C     0.34116   0.23507   0.49869   0.01267  Uiso   1.00
C11    C     0.24284   0.20270   0.50350   0.01267  Uiso   1.00
C12    C     0.14262   0.16491   0.41293   0.01267  Uiso   1.00
C13    C     0.14177   0.16696   0.32344   0.01267  Uiso   1.00
C14    C     0.24403   0.20592   0.60210   0.01267  Uiso   1.00
C15    C     0.60057   0.30944   0.89178   0.01267  Uiso   1.00
C16    C     0.71520   0.36021   0.92571   0.01267  Uiso   1.00
C17    C     0.77576   0.46645   0.96647   0.01267  Uiso   1.00
C18    C     0.71675   0.51648   0.97058   0.01267  Uiso   1.00
C19    C     0.60154   0.46077   0.93371   0.01267  Uiso   1.00
C20    C     0.90064   0.52466   0.00618   0.01267  Uiso   1.00
C21    C     0.96450   0.63717   0.07179   0.01267  Uiso   1.00
C22    C     0.25693   0.05493   0.77075   0.01267  Uiso   1.00
C23    C     0.25877   0.95845   0.77503   0.01267  Uiso   1.00
C24    C     0.15959   0.86280   0.72038   0.01267  Uiso   1.00
C25    C     0.16052   0.77529   0.72695   0.01267  Uiso   1.00
C26    C     0.26004   0.77724   0.78950   0.01267  Uiso   1.00
C27    C     0.35807   0.87313   0.84405   0.01267  Uiso   1.00
C28    C     0.35741   0.96111   0.83595   0.01267  Uiso   1.00
C29    C     0.26011   0.68168   0.79576   0.01267  Uiso   1.00
C30    C     0.16016   0.59177   0.76455   0.01267  Uiso   1.00
C31    C     0.15884   0.50131   0.76493   0.01267  Uiso   1.00
C32    C     0.25716   0.49650   0.79730   0.01267  Uiso   1.00
C33    C     0.35738   0.58707   0.83509   0.01267  Uiso   1.00
C34    C     0.35823   0.67656   0.83304   0.01267  Uiso   1.00
C35    C     0.25597   0.39790   0.79408   0.01267  Uiso   1.00
C36    C     0.89943   0.10822   0.69056   0.01267  Uiso   1.00
C37    C     0.78480   0.07429   0.63979   0.01267  Uiso   1.00
C38    C     0.72424   0.03353   0.53355   0.01267  Uiso   1.00
C39    C     0.78325   0.02942   0.48352   0.01267  Uiso   1.00
C40    C     0.89846   0.06629   0.53923   0.01267  Uiso   1.00
C41    C     0.59936   0.99382   0.47534   0.01267  Uiso   1.00
C42    C     0.53550   0.92821   0.36283   0.01267  Uiso   1.00
C43    C     0.75693   0.77075   0.05493   0.01267  Uiso   1.00
C44    C     0.75877   0.77503   0.95845   0.01267  Uiso   1.00
C45    C     0.65959   0.72038   0.86280   0.01267  Uiso   1.00
C46    C     0.66052   0.72695   0.77529   0.01267  Uiso   1.00
C47    C     0.76004   0.78950   0.77724   0.01267  Uiso   1.00
C48    C     0.85807   0.84405   0.87313   0.01267  Uiso   1.00
C49    C     0.85741   0.83595   0.96111   0.01267  Uiso   1.00
C50    C     0.76011   0.79576   0.68168   0.01267  Uiso   1.00
C51    C     0.66016   0.76455   0.59177   0.01267  Uiso   1.00
C52    C     0.65884   0.76493   0.50131   0.01267  Uiso   1.00
C53    C     0.75716   0.79730   0.49650   0.01267  Uiso   1.00
C54    C     0.85738   0.83509   0.58707   0.01267  Uiso   1.00
C55    C     0.85823   0.83304   0.67656   0.01267  Uiso   1.00
C56    C     0.75597   0.79408   0.39790   0.01267  Uiso   1.00
C57    C     0.39943   0.69056   0.10822   0.01267  Uiso   1.00
C58    C     0.28480   0.63979   0.07429   0.01267  Uiso   1.00
C59    C     0.22424   0.53355   0.03353   0.01267  Uiso   1.00
C60    C     0.28325   0.48352   0.02942   0.01267  Uiso   1.00
C61    C     0.39846   0.53923   0.06629   0.01267  Uiso   1.00
C62    C     0.09936   0.47534   0.99382   0.01267  Uiso   1.00
C63    C     0.03550   0.36283   0.92821   0.01267  Uiso   1.00
C64    C     0.74307   0.94507   0.22925   0.01267  Uiso   1.00
C65    C     0.74123   0.04155   0.22497   0.01267  Uiso   1.00
C66    C     0.84041   0.13720   0.27962   0.01267  Uiso   1.00
C67    C     0.83948   0.22471   0.27305   0.01267  Uiso   1.00
C68    C     0.73996   0.22276   0.21050   0.01267  Uiso   1.00
C69    C     0.64193   0.12687   0.15595   0.01267  Uiso   1.00
C70    C     0.64259   0.03889   0.16405   0.01267  Uiso   1.00
C71    C     0.73989   0.31832   0.20424   0.01267  Uiso   1.00
C72    C     0.83984   0.40823   0.23545   0.01267  Uiso   1.00
C73    C     0.84116   0.49869   0.23507   0.01267  Uiso   1.00
C74    C     0.74284   0.50350   0.20270   0.01267  Uiso   1.00
C75    C     0.64262   0.41293   0.16491   0.01267  Uiso   1.00
C76    C     0.64177   0.32344   0.16696   0.01267  Uiso   1.00
C77    C     0.74403   0.60210   0.20592   0.01267  Uiso   1.00
C78    C     0.10057   0.89178   0.30944   0.01267  Uiso   1.00
C79    C     0.21520   0.92571   0.36021   0.01267  Uiso   1.00
C80    C     0.27576   0.96647   0.46645   0.01267  Uiso   1.00
C81    C     0.21675   0.97058   0.51648   0.01267  Uiso   1.00
C82    C     0.10154   0.93371   0.46077   0.01267  Uiso   1.00
C83    C     0.40064   0.00618   0.52466   0.01267  Uiso   1.00
C84    C     0.46450   0.07179   0.63717   0.01267  Uiso   1.00
N1     N     0.54240   0.35807   0.89465   0.01267  Uiso   1.00
N2     N     0.94183   0.47159   0.98163   0.01267  Uiso   1.00
N3     N     0.95760   0.10535   0.64193   0.01267  Uiso   1.00
N4     N     0.55817   0.01837   0.52841   0.01267  Uiso   1.00
N5     N     0.45760   0.64193   0.10535   0.01267  Uiso   1.00
N6     N     0.05817   0.52841   0.01837   0.01267  Uiso   1.00
N7     N     0.04240   0.89465   0.35807   0.01267  Uiso   1.00
N8     N     0.44183   0.98163   0.47159   0.01267  Uiso   1.00
O1     O     0.14855   0.18136   0.86276   0.01267  Uiso   1.00
O2     O     0.33794   0.27981   0.95233   0.01267  Uiso   1.00
O3     O     0.33806   0.24233   0.68259   0.01267  Uiso   1.00
O4     O     0.14955   0.17089   0.59867   0.01267  Uiso   1.00
O5     O     0.35145   0.13724   0.81864   0.01267  Uiso   1.00
O6     O     0.16206   0.04767   0.72019   0.01267  Uiso   1.00
O7     O     0.16194   0.31741   0.75767   0.01267  Uiso   1.00
O8     O     0.35045   0.40133   0.82911   0.01267  Uiso   1.00
O9     O     0.85145   0.81864   0.13724   0.01267  Uiso   1.00
O10    O     0.66206   0.72019   0.04767   0.01267  Uiso   1.00
O11    O     0.66194   0.75767   0.31741   0.01267  Uiso   1.00
O12    O     0.85045   0.82911   0.40133   0.01267  Uiso   1.00
O13    O     0.64855   0.86276   0.18136   0.01267  Uiso   1.00
O14    O     0.83794   0.95233   0.27981   0.01267  Uiso   1.00
O15    O     0.83806   0.68259   0.24233   0.01267  Uiso   1.00
O16    O     0.64955   0.59867   0.17089   0.01267  Uiso   1.00
