data_NESTAI_clean
_audit_creation_date              2014-07-02
_audit_creation_method            'Materials Studio'
_symmetry_space_group_name_H-M    'P1'
_symmetry_Int_Tables_number       1
_symmetry_cell_setting            triclinic
loop_
_symmetry_equiv_pos_as_xyz
  x,y,z
_cell_length_a                    14.7860
_cell_length_b                    15.1167
_cell_length_c                    17.8350
_cell_angle_alpha                 86.1987
_cell_angle_beta                  82.2091
_cell_angle_gamma                 60.7210
loop_
_atom_site_label
_atom_site_type_symbol
_atom_site_fract_x
_atom_site_fract_y
_atom_site_fract_z
_atom_site_U_iso_or_equiv
_atom_site_adp_type
_atom_site_occupancy
Ni1    Ni    0.50930   0.22456   0.73645   0.01267  Uiso   1.00
Ni2    Ni    0.26614   0.22456   0.76355   0.01267  Uiso   1.00
Ni3    Ni    0.49070   0.77544   0.26355   0.01267  Uiso   1.00
Ni4    Ni    0.73386   0.77544   0.23645   0.01267  Uiso   1.00
H1     H     0.30690   0.35220   0.78710   0.01267  Uiso   1.00
H2     H     0.62570   0.38380   0.57100   0.01267  Uiso   1.00
H3     H     0.33190   0.52580   0.52270   0.01267  Uiso   1.00
H4     H     0.35560   0.02260   0.94890   0.01267  Uiso   1.00
H5     H     0.60100   0.06580   0.93980   0.01267  Uiso   1.00
H6     H     0.68220   0.15780   0.60630   0.01267  Uiso   1.00
H7     H     0.95860   0.97020   0.67490   0.01267  Uiso   1.00
H8     H     0.87650   0.99040   0.79700   0.01267  Uiso   1.00
H9     H     0.69990   0.09480   0.81990   0.01267  Uiso   1.00
H10    H     0.78150   0.05940   0.47630   0.01267  Uiso   1.00
H11    H     0.76000   0.16680   0.49990   0.01267  Uiso   1.00
H12    H     0.85560   0.10180   0.44050   0.01267  Uiso   1.00
H13    H     0.63260   0.32900   0.74680   0.01267  Uiso   1.00
H14    H     0.59120   0.43740   0.95220   0.01267  Uiso   1.00
H15    H     0.45880   0.39480   0.98560   0.01267  Uiso   1.00
H16    H     0.42550   0.31300   0.89820   0.01267  Uiso   1.00
H17    H     0.82510   0.43260   0.87130   0.01267  Uiso   1.00
H18    H     0.73010   0.44340   0.93310   0.01267  Uiso   1.00
H19    H     0.34090   0.35220   0.71290   0.01267  Uiso   1.00
H20    H     0.99050   0.38380   0.92900   0.01267  Uiso   1.00
H21    H     0.14230   0.52580   0.97730   0.01267  Uiso   1.00
H22    H     0.62180   0.02260   0.55110   0.01267  Uiso   1.00
H23    H     0.33320   0.06580   0.56020   0.01267  Uiso   1.00
H24    H     0.16000   0.15780   0.89370   0.01267  Uiso   1.00
H25    H     0.07120   0.97020   0.82510   0.01267  Uiso   1.00
H26    H     0.13310   0.99040   0.70300   0.01267  Uiso   1.00
H27    H     0.20530   0.09480   0.68010   0.01267  Uiso   1.00
H28    H     0.15910   0.05940   0.02370   0.01267  Uiso   1.00
H29    H     0.07320   0.16680   0.00010   0.01267  Uiso   1.00
H30    H     0.04260   0.10180   0.05950   0.01267  Uiso   1.00
H31    H     0.03840   0.32900   0.75320   0.01267  Uiso   1.00
H32    H     0.97140   0.43740   0.54780   0.01267  Uiso   1.00
H33    H     0.14640   0.39480   0.51440   0.01267  Uiso   1.00
H34    H     0.26150   0.31300   0.60180   0.01267  Uiso   1.00
H35    H     0.74230   0.43260   0.62870   0.01267  Uiso   1.00
H36    H     0.82650   0.44340   0.56690   0.01267  Uiso   1.00
H37    H     0.69310   0.64780   0.21290   0.01267  Uiso   1.00
H38    H     0.37430   0.61620   0.42900   0.01267  Uiso   1.00
H39    H     0.66810   0.47420   0.47730   0.01267  Uiso   1.00
H40    H     0.64440   0.97740   0.05110   0.01267  Uiso   1.00
H41    H     0.39900   0.93420   0.06020   0.01267  Uiso   1.00
H42    H     0.31780   0.84220   0.39370   0.01267  Uiso   1.00
H43    H     0.04140   0.02980   0.32510   0.01267  Uiso   1.00
H44    H     0.12350   0.00960   0.20300   0.01267  Uiso   1.00
H45    H     0.30010   0.90520   0.18010   0.01267  Uiso   1.00
H46    H     0.21850   0.94060   0.52370   0.01267  Uiso   1.00
H47    H     0.24000   0.83320   0.50010   0.01267  Uiso   1.00
H48    H     0.14440   0.89820   0.55950   0.01267  Uiso   1.00
H49    H     0.36740   0.67100   0.25320   0.01267  Uiso   1.00
H50    H     0.40880   0.56260   0.04780   0.01267  Uiso   1.00
H51    H     0.54120   0.60520   0.01440   0.01267  Uiso   1.00
H52    H     0.57450   0.68700   0.10180   0.01267  Uiso   1.00
H53    H     0.17490   0.56740   0.12870   0.01267  Uiso   1.00
H54    H     0.26990   0.55660   0.06690   0.01267  Uiso   1.00
H55    H     0.65910   0.64780   0.28710   0.01267  Uiso   1.00
H56    H     0.00950   0.61620   0.07100   0.01267  Uiso   1.00
H57    H     0.85770   0.47420   0.02270   0.01267  Uiso   1.00
H58    H     0.37820   0.97740   0.44890   0.01267  Uiso   1.00
H59    H     0.66680   0.93420   0.43980   0.01267  Uiso   1.00
H60    H     0.84000   0.84220   0.10630   0.01267  Uiso   1.00
H61    H     0.92880   0.02980   0.17490   0.01267  Uiso   1.00
H62    H     0.86690   0.00960   0.29700   0.01267  Uiso   1.00
H63    H     0.79470   0.90520   0.31990   0.01267  Uiso   1.00
H64    H     0.84090   0.94060   0.97630   0.01267  Uiso   1.00
H65    H     0.92680   0.83320   0.99990   0.01267  Uiso   1.00
H66    H     0.95740   0.89820   0.94050   0.01267  Uiso   1.00
H67    H     0.96160   0.67100   0.24680   0.01267  Uiso   1.00
H68    H     0.02860   0.56260   0.45220   0.01267  Uiso   1.00
H69    H     0.85360   0.60520   0.48560   0.01267  Uiso   1.00
H70    H     0.73850   0.68700   0.39820   0.01267  Uiso   1.00
H71    H     0.25770   0.56740   0.37130   0.01267  Uiso   1.00
H72    H     0.17350   0.55660   0.43310   0.01267  Uiso   1.00
C1     C     0.44693   0.38532   0.61728   0.01267  Uiso   1.00
C2     C     0.47508   0.44438   0.55599   0.01267  Uiso   1.00
C3     C     0.57474   0.43042   0.54234   0.01267  Uiso   1.00
C4     C     0.39995   0.51502   0.51354   0.01267  Uiso   1.00
C5     C     0.44426   0.11368   0.86056   0.01267  Uiso   1.00
C6     C     0.47422   0.05356   0.93231   0.01267  Uiso   1.00
C7     C     0.41426   0.01374   0.96918   0.01267  Uiso   1.00
C8     C     0.55959   0.03928   0.96388   0.01267  Uiso   1.00
C9     C     0.72244   0.12342   0.64504   0.01267  Uiso   1.00
C10    C     0.82929   0.06334   0.62650   0.01267  Uiso   1.00
C11    C     0.88689   0.01242   0.68469   0.01267  Uiso   1.00
C12    C     0.83822   0.02416   0.75717   0.01267  Uiso   1.00
C13    C     0.73211   0.08638   0.77032   0.01267  Uiso   1.00
C14    C     0.87916   0.05262   0.54711   0.01267  Uiso   1.00
C15    C     0.81330   0.09920   0.48559   0.01267  Uiso   1.00
C16    C     0.59884   0.34112   0.79600   0.01267  Uiso   1.00
C17    C     0.62860   0.38520   0.84620   0.01267  Uiso   1.00
C18    C     0.57510   0.40580   0.91720   0.01267  Uiso   1.00
C19    C     0.49610   0.38040   0.93760   0.01267  Uiso   1.00
C20    C     0.47559   0.33322   0.88460   0.01267  Uiso   1.00
C21    C     0.72380   0.39420   0.82730   0.01267  Uiso   1.00
C22    C     0.76470   0.42760   0.88430   0.01267  Uiso   1.00
C23    C     0.16775   0.38532   0.88272   0.01267  Uiso   1.00
C24    C     0.08054   0.44438   0.94401   0.01267  Uiso   1.00
C25    C     0.99484   0.43042   0.95766   0.01267  Uiso   1.00
C26    C     0.08503   0.51502   0.98646   0.01267  Uiso   1.00
C27    C     0.44206   0.11368   0.63944   0.01267  Uiso   1.00
C28    C     0.47222   0.05356   0.56769   0.01267  Uiso   1.00
C29    C     0.57200   0.01374   0.53082   0.01267  Uiso   1.00
C30    C     0.40113   0.03928   0.53612   0.01267  Uiso   1.00
C31    C     0.15414   0.12342   0.85496   0.01267  Uiso   1.00
C32    C     0.10737   0.06334   0.87350   0.01267  Uiso   1.00
C33    C     0.10069   0.01242   0.81531   0.01267  Uiso   1.00
C34    C     0.13762   0.02416   0.74283   0.01267  Uiso   1.00
C35    C     0.18151   0.08638   0.72968   0.01267  Uiso   1.00
C36    C     0.06822   0.05262   0.95289   0.01267  Uiso   1.00
C37    C     0.08750   0.09920   0.01441   0.01267  Uiso   1.00
C38    C     0.06004   0.34112   0.70400   0.01267  Uiso   1.00
C39    C     0.98620   0.38520   0.65380   0.01267  Uiso   1.00
C40    C     0.01910   0.40580   0.58280   0.01267  Uiso   1.00
C41    C     0.12350   0.38040   0.56240   0.01267  Uiso   1.00
C42    C     0.19119   0.33322   0.61540   0.01267  Uiso   1.00
C43    C     0.88200   0.39420   0.67270   0.01267  Uiso   1.00
C44    C     0.80770   0.42760   0.61570   0.01267  Uiso   1.00
C45    C     0.55307   0.61468   0.38272   0.01267  Uiso   1.00
C46    C     0.52492   0.55562   0.44401   0.01267  Uiso   1.00
C47    C     0.42526   0.56958   0.45766   0.01267  Uiso   1.00
C48    C     0.60005   0.48498   0.48646   0.01267  Uiso   1.00
C49    C     0.55574   0.88632   0.13944   0.01267  Uiso   1.00
C50    C     0.52578   0.94644   0.06769   0.01267  Uiso   1.00
C51    C     0.58574   0.98626   0.03082   0.01267  Uiso   1.00
C52    C     0.44041   0.96072   0.03612   0.01267  Uiso   1.00
C53    C     0.27756   0.87658   0.35496   0.01267  Uiso   1.00
C54    C     0.17071   0.93666   0.37350   0.01267  Uiso   1.00
C55    C     0.11311   0.98758   0.31531   0.01267  Uiso   1.00
C56    C     0.16178   0.97584   0.24283   0.01267  Uiso   1.00
C57    C     0.26789   0.91362   0.22968   0.01267  Uiso   1.00
C58    C     0.12084   0.94738   0.45289   0.01267  Uiso   1.00
C59    C     0.18670   0.90080   0.51441   0.01267  Uiso   1.00
C60    C     0.40116   0.65888   0.20400   0.01267  Uiso   1.00
C61    C     0.37140   0.61480   0.15380   0.01267  Uiso   1.00
C62    C     0.42490   0.59420   0.08280   0.01267  Uiso   1.00
C63    C     0.50390   0.61960   0.06240   0.01267  Uiso   1.00
C64    C     0.52441   0.66678   0.11540   0.01267  Uiso   1.00
C65    C     0.27620   0.60580   0.17270   0.01267  Uiso   1.00
C66    C     0.23530   0.57240   0.11570   0.01267  Uiso   1.00
C67    C     0.83225   0.61468   0.11728   0.01267  Uiso   1.00
C68    C     0.91946   0.55562   0.05599   0.01267  Uiso   1.00
C69    C     0.00516   0.56958   0.04234   0.01267  Uiso   1.00
C70    C     0.91497   0.48498   0.01354   0.01267  Uiso   1.00
C71    C     0.55794   0.88632   0.36056   0.01267  Uiso   1.00
C72    C     0.52778   0.94644   0.43231   0.01267  Uiso   1.00
C73    C     0.42800   0.98626   0.46918   0.01267  Uiso   1.00
C74    C     0.59887   0.96072   0.46388   0.01267  Uiso   1.00
C75    C     0.84586   0.87658   0.14504   0.01267  Uiso   1.00
C76    C     0.89263   0.93666   0.12650   0.01267  Uiso   1.00
C77    C     0.89931   0.98758   0.18469   0.01267  Uiso   1.00
C78    C     0.86238   0.97584   0.25717   0.01267  Uiso   1.00
C79    C     0.81849   0.91362   0.27032   0.01267  Uiso   1.00
C80    C     0.93178   0.94738   0.04711   0.01267  Uiso   1.00
C81    C     0.91250   0.90080   0.98559   0.01267  Uiso   1.00
C82    C     0.93996   0.65888   0.29600   0.01267  Uiso   1.00
C83    C     0.01380   0.61480   0.34620   0.01267  Uiso   1.00
C84    C     0.98090   0.59420   0.41720   0.01267  Uiso   1.00
C85    C     0.87650   0.61960   0.43760   0.01267  Uiso   1.00
C86    C     0.80881   0.66678   0.38460   0.01267  Uiso   1.00
C87    C     0.11800   0.60580   0.32730   0.01267  Uiso   1.00
C88    C     0.19230   0.57240   0.38430   0.01267  Uiso   1.00
N1     N     0.67404   0.13456   0.71575   0.01267  Uiso   1.00
N2     N     0.52465   0.31502   0.81409   0.01267  Uiso   1.00
N3     N     0.97743   0.00432   0.53794   0.01267  Uiso   1.00
N4     N     0.76611   0.37124   0.76030   0.01267  Uiso   1.00
N5     N     0.19140   0.13456   0.78425   0.01267  Uiso   1.00
N6     N     0.16033   0.31502   0.68591   0.01267  Uiso   1.00
N7     N     0.01825   0.00432   0.96206   0.01267  Uiso   1.00
N8     N     0.86265   0.37124   0.73970   0.01267  Uiso   1.00
N9     N     0.32596   0.86544   0.28425   0.01267  Uiso   1.00
N10    N     0.47535   0.68498   0.18591   0.01267  Uiso   1.00
N11    N     0.02257   0.99568   0.46206   0.01267  Uiso   1.00
N12    N     0.23389   0.62876   0.23970   0.01267  Uiso   1.00
N13    N     0.80860   0.86544   0.21575   0.01267  Uiso   1.00
N14    N     0.83967   0.68498   0.31409   0.01267  Uiso   1.00
N15    N     0.98175   0.99568   0.03794   0.01267  Uiso   1.00
N16    N     0.13735   0.62876   0.26030   0.01267  Uiso   1.00
O1     O     0.51914   0.31960   0.65187   0.01267  Uiso   1.00
O2     O     0.35307   0.40772   0.63045   0.01267  Uiso   1.00
O3     O     0.51124   0.13370   0.82473   0.01267  Uiso   1.00
O4     O     0.35662   0.13780   0.84336   0.01267  Uiso   1.00
O5     O     0.16126   0.31960   0.84813   0.01267  Uiso   1.00
O6     O     0.23921   0.40772   0.86955   0.01267  Uiso   1.00
O7     O     0.35506   0.13370   0.67527   0.01267  Uiso   1.00
O8     O     0.50558   0.13780   0.65664   0.01267  Uiso   1.00
O9     O     0.48086   0.68040   0.34813   0.01267  Uiso   1.00
O10    O     0.64693   0.59228   0.36955   0.01267  Uiso   1.00
O11    O     0.48876   0.86630   0.17527   0.01267  Uiso   1.00
O12    O     0.64338   0.86220   0.15664   0.01267  Uiso   1.00
O13    O     0.83874   0.68040   0.15187   0.01267  Uiso   1.00
O14    O     0.76079   0.59228   0.13045   0.01267  Uiso   1.00
O15    O     0.64494   0.86630   0.32473   0.01267  Uiso   1.00
O16    O     0.49442   0.86220   0.34336   0.01267  Uiso   1.00
O17    O     0.34595   0.30810   0.75000   0.01267  Uiso   1.00
O18    O     0.65405   0.69190   0.25000   0.01267  Uiso   1.00
