data_NEVVIU_clean
_audit_creation_date              2014-07-02
_audit_creation_method            'Materials Studio'
_symmetry_space_group_name_H-M    'P1'
_symmetry_Int_Tables_number       1
_symmetry_cell_setting            triclinic
loop_
_symmetry_equiv_pos_as_xyz
  x,y,z
_cell_length_a                    10.9701
_cell_length_b                    11.0763
_cell_length_c                    11.0763
_cell_angle_alpha                 109.6010
_cell_angle_beta                  100.9160
_cell_angle_gamma                 79.0835
loop_
_atom_site_label
_atom_site_type_symbol
_atom_site_fract_x
_atom_site_fract_y
_atom_site_fract_z
_atom_site_U_iso_or_equiv
_atom_site_adp_type
_atom_site_occupancy
Co1    Co    0.95550   0.62095   0.44495   0.01267  Uiso   1.00
Co2    Co    0.54450   0.44495   0.62095   0.01267  Uiso   1.00
Co3    Co    0.04450   0.37905   0.55505   0.01267  Uiso   1.00
Co4    Co    0.45550   0.55505   0.37905   0.01267  Uiso   1.00
Co5    Co    0.75000   0.59863   0.59863   0.01267  Uiso   1.00
Co6    Co    0.25000   0.40137   0.40137   0.01267  Uiso   1.00
H1     H     0.97400   0.60490   0.67110   0.01267  Uiso   1.00
H2     H     0.63800   0.54010   0.04850   0.01267  Uiso   1.00
H3     H     0.94000   0.66460   0.99140   0.01267  Uiso   1.00
H4     H     0.03200   0.67330   0.20070   0.01267  Uiso   1.00
H5     H     0.52600   0.67110   0.60490   0.01267  Uiso   1.00
H6     H     0.86200   0.04850   0.54010   0.01267  Uiso   1.00
H7     H     0.56000   0.99140   0.66460   0.01267  Uiso   1.00
H8     H     0.46800   0.20070   0.67330   0.01267  Uiso   1.00
H9     H     0.02600   0.39510   0.32890   0.01267  Uiso   1.00
H10    H     0.36200   0.45990   0.95150   0.01267  Uiso   1.00
H11    H     0.06000   0.33540   0.00860   0.01267  Uiso   1.00
H12    H     0.96800   0.32670   0.79930   0.01267  Uiso   1.00
H13    H     0.47400   0.32890   0.39510   0.01267  Uiso   1.00
H14    H     0.13800   0.95150   0.45990   0.01267  Uiso   1.00
H15    H     0.44000   0.00860   0.33540   0.01267  Uiso   1.00
H16    H     0.53200   0.79930   0.32670   0.01267  Uiso   1.00
C1     C     0.77360   0.57952   0.20216   0.01267  Uiso   1.00
C2     C     0.71710   0.56627   0.07633   0.01267  Uiso   1.00
C3     C     0.77940   0.59656   0.99424   0.01267  Uiso   1.00
C4     C     0.89420   0.63995   0.04265   0.01267  Uiso   1.00
C5     C     0.94550   0.64789   0.16871   0.01267  Uiso   1.00
C6     C     0.70960   0.55585   0.30035   0.01267  Uiso   1.00
C7     C     0.72560   0.57838   0.85384   0.01267  Uiso   1.00
C8     C     0.72640   0.20216   0.57952   0.01267  Uiso   1.00
C9     C     0.78290   0.07633   0.56627   0.01267  Uiso   1.00
C10    C     0.72060   0.99424   0.59656   0.01267  Uiso   1.00
C11    C     0.60580   0.04265   0.63995   0.01267  Uiso   1.00
C12    C     0.55450   0.16871   0.64789   0.01267  Uiso   1.00
C13    C     0.79040   0.30035   0.55585   0.01267  Uiso   1.00
C14    C     0.77440   0.85384   0.57838   0.01267  Uiso   1.00
C15    C     0.22640   0.42048   0.79784   0.01267  Uiso   1.00
C16    C     0.28290   0.43373   0.92367   0.01267  Uiso   1.00
C17    C     0.22060   0.40344   0.00576   0.01267  Uiso   1.00
C18    C     0.10580   0.36005   0.95735   0.01267  Uiso   1.00
C19    C     0.05450   0.35211   0.83129   0.01267  Uiso   1.00
C20    C     0.29040   0.44415   0.69965   0.01267  Uiso   1.00
C21    C     0.27440   0.42162   0.14616   0.01267  Uiso   1.00
C22    C     0.27360   0.79784   0.42048   0.01267  Uiso   1.00
C23    C     0.21710   0.92367   0.43373   0.01267  Uiso   1.00
C24    C     0.27940   0.00576   0.40344   0.01267  Uiso   1.00
C25    C     0.39420   0.95735   0.36005   0.01267  Uiso   1.00
C26    C     0.44550   0.83129   0.35211   0.01267  Uiso   1.00
C27    C     0.20960   0.69965   0.44415   0.01267  Uiso   1.00
C28    C     0.22560   0.14616   0.42162   0.01267  Uiso   1.00
N1     N     0.88722   0.61739   0.24799   0.01267  Uiso   1.00
N2     N     0.61278   0.24799   0.61739   0.01267  Uiso   1.00
N3     N     0.11278   0.38261   0.75201   0.01267  Uiso   1.00
N4     N     0.38722   0.75201   0.38261   0.01267  Uiso   1.00
O1     O     0.77783   0.55629   0.40533   0.01267  Uiso   1.00
O2     O     0.59770   0.54132   0.27256   0.01267  Uiso   1.00
O3     O     0.63653   0.51382   0.81006   0.01267  Uiso   1.00
O4     O     0.77711   0.62812   0.79450   0.01267  Uiso   1.00
O5     O     0.94720   0.56761   0.60839   0.01267  Uiso   1.00
O6     O     0.72217   0.40533   0.55629   0.01267  Uiso   1.00
O7     O     0.90230   0.27256   0.54132   0.01267  Uiso   1.00
O8     O     0.86347   0.81006   0.51382   0.01267  Uiso   1.00
O9     O     0.72289   0.79450   0.62812   0.01267  Uiso   1.00
O10    O     0.55280   0.60839   0.56761   0.01267  Uiso   1.00
O11    O     0.22217   0.44371   0.59467   0.01267  Uiso   1.00
O12    O     0.40230   0.45868   0.72744   0.01267  Uiso   1.00
O13    O     0.36347   0.48618   0.18994   0.01267  Uiso   1.00
O14    O     0.22289   0.37188   0.20550   0.01267  Uiso   1.00
O15    O     0.05280   0.43239   0.39161   0.01267  Uiso   1.00
O16    O     0.27783   0.59467   0.44371   0.01267  Uiso   1.00
O17    O     0.09770   0.72744   0.45868   0.01267  Uiso   1.00
O18    O     0.13653   0.18994   0.48618   0.01267  Uiso   1.00
O19    O     0.27711   0.20550   0.37188   0.01267  Uiso   1.00
O20    O     0.44720   0.39161   0.43239   0.01267  Uiso   1.00
