data_NIGBOW_clean
_audit_creation_date              2014-07-02
_audit_creation_method            'Materials Studio'
_symmetry_space_group_name_H-M    'P1'
_symmetry_Int_Tables_number       1
_symmetry_cell_setting            triclinic
loop_
_symmetry_equiv_pos_as_xyz
  x,y,z
_cell_length_a                    6.9570
_cell_length_b                    15.2588
_cell_length_c                    15.2588
_cell_angle_alpha                 84.7587
_cell_angle_beta                  76.8226
_cell_angle_gamma                 76.8226
loop_
_atom_site_label
_atom_site_type_symbol
_atom_site_fract_x
_atom_site_fract_y
_atom_site_fract_z
_atom_site_U_iso_or_equiv
_atom_site_adp_type
_atom_site_occupancy
V1     V     0.50000  -0.00000  -0.00000   0.01267  Uiso   1.00
V2     V     0.00000   0.00000   0.00000   0.01267  Uiso   1.00
C1     C     0.58460   0.69400   0.00400   0.01267  Uiso   1.00
C2     C     0.63700   0.59500   0.00300   0.01267  Uiso   1.00
C3     C     0.91540   0.99600   0.30600   0.01267  Uiso   1.00
C4     C     0.86300   0.99700   0.40500   0.01267  Uiso   1.00
C5     C     0.78260   0.30600   0.99600   0.01267  Uiso   1.00
C6     C     0.73500   0.40500   0.99700   0.01267  Uiso   1.00
C7     C     0.71740   0.00400   0.69400   0.01267  Uiso   1.00
C8     C     0.76500   0.00300   0.59500   0.01267  Uiso   1.00
C9     C     0.41540   0.30600   0.99600   0.01267  Uiso   1.00
C10    C     0.36300   0.40500   0.99700   0.01267  Uiso   1.00
C11    C     0.08460   0.00400   0.69400   0.01267  Uiso   1.00
C12    C     0.13700   0.00300   0.59500   0.01267  Uiso   1.00
C13    C     0.21740   0.69400   0.00400   0.01267  Uiso   1.00
C14    C     0.26500   0.59500   0.00300   0.01267  Uiso   1.00
C15    C     0.28260   0.99600   0.30600   0.01267  Uiso   1.00
C16    C     0.23500   0.99700   0.40500   0.01267  Uiso   1.00
C17    C     0.33200   0.84400   0.99200   0.01267  Uiso   1.00
C18    C     0.37900   0.74100   0.00100   0.01267  Uiso   1.00
C19    C     0.47400   0.55000   0.00200   0.01267  Uiso   1.00
C20    C     0.16800   0.00800   0.15600   0.01267  Uiso   1.00
C21    C     0.12100   0.99900   0.25900   0.01267  Uiso   1.00
C22    C     0.02600   0.99800   0.45000   0.01267  Uiso   1.00
C23    C     0.66800   0.15600   0.00800   0.01267  Uiso   1.00
C24    C     0.62100   0.25900   0.99900   0.01267  Uiso   1.00
C25    C     0.52600   0.45000   0.99800   0.01267  Uiso   1.00
C26    C     0.83200   0.99200   0.84400   0.01267  Uiso   1.00
C27    C     0.87900   0.00100   0.74100   0.01267  Uiso   1.00
C28    C     0.97400   0.00200   0.55000   0.01267  Uiso   1.00
O1     O     0.48750   0.88450   0.98650   0.01267  Uiso   1.00
O2     O     0.01250   0.01350   0.11550   0.01267  Uiso   1.00
O3     O     0.85850   0.11550   0.01350   0.01267  Uiso   1.00
O4     O     0.64150   0.98650   0.88450   0.01267  Uiso   1.00
O5     O     0.51250   0.11550   0.01350   0.01267  Uiso   1.00
O6     O     0.98750   0.98650   0.88450   0.01267  Uiso   1.00
O7     O     0.14150   0.88450   0.98650   0.01267  Uiso   1.00
O8     O     0.35850   0.01350   0.11550   0.01267  Uiso   1.00
O9     O     0.75000   0.96200   0.03800   0.01267  Uiso   1.00
O10    O     0.25000   0.03800   0.96200   0.01267  Uiso   1.00
