data_NOFRAC_clean
_audit_creation_date              2014-07-02
_audit_creation_method            'Materials Studio'
_symmetry_space_group_name_H-M    'P1'
_symmetry_Int_Tables_number       1
_symmetry_cell_setting            triclinic
loop_
_symmetry_equiv_pos_as_xyz
  x,y,z
_cell_length_a                    10.5933
_cell_length_b                    11.1241
_cell_length_c                    17.8256
_cell_angle_alpha                 100.8650
_cell_angle_beta                  90.0000
_cell_angle_gamma                 90.0000
loop_
_atom_site_label
_atom_site_type_symbol
_atom_site_fract_x
_atom_site_fract_y
_atom_site_fract_z
_atom_site_U_iso_or_equiv
_atom_site_adp_type
_atom_site_occupancy
As1    As    0.04445   0.28167   0.66785   0.01267  Uiso   1.00
As2    As    0.54445   0.21833   0.83215   0.01267  Uiso   1.00
As3    As    0.95555   0.71833   0.33215   0.01267  Uiso   1.00
As4    As    0.45555   0.78167   0.16785   0.01267  Uiso   1.00
H1     H     0.23400   0.15640   0.56060   0.01267  Uiso   1.00
H2     H     0.86630   0.12880   0.41740   0.01267  Uiso   1.00
H3     H     0.86360   0.22780   0.54070   0.01267  Uiso   1.00
H4     H     0.73400   0.34360   0.93940   0.01267  Uiso   1.00
H5     H     0.36630   0.37120   0.08260   0.01267  Uiso   1.00
H6     H     0.36360   0.27220   0.95930   0.01267  Uiso   1.00
H7     H     0.76600   0.84360   0.43940   0.01267  Uiso   1.00
H8     H     0.13370   0.87120   0.58260   0.01267  Uiso   1.00
H9     H     0.13640   0.77220   0.45930   0.01267  Uiso   1.00
H10    H     0.26600   0.65640   0.06060   0.01267  Uiso   1.00
H11    H     0.63370   0.62880   0.91740   0.01267  Uiso   1.00
H12    H     0.63640   0.72780   0.04070   0.01267  Uiso   1.00
Pb1    Pb    0.83496   0.07808   0.75727   0.01267  Uiso   1.00
Pb2    Pb    0.76053   0.41926   0.73701   0.01267  Uiso   1.00
Pb3    Pb    0.33496   0.42192   0.74273   0.01267  Uiso   1.00
Pb4    Pb    0.26053   0.08074   0.76299   0.01267  Uiso   1.00
Pb5    Pb    0.16504   0.92192   0.24273   0.01267  Uiso   1.00
Pb6    Pb    0.23947   0.58074   0.26299   0.01267  Uiso   1.00
Pb7    Pb    0.66504   0.57808   0.25727   0.01267  Uiso   1.00
Pb8    Pb    0.73947   0.91926   0.23701   0.01267  Uiso   1.00
C1     C     0.04920   0.20460   0.56370   0.01267  Uiso   1.00
C2     C     0.16050   0.15210   0.53170   0.01267  Uiso   1.00
C3     C     0.16000   0.09330   0.45620   0.01267  Uiso   1.00
C4     C     0.04870   0.07830   0.40930   0.01267  Uiso   1.00
C5     C     0.94080   0.13340   0.44540   0.01267  Uiso   1.00
C6     C     0.93860   0.19370   0.51940   0.01267  Uiso   1.00
C7     C     0.54920   0.29540   0.93630   0.01267  Uiso   1.00
C8     C     0.66050   0.34790   0.96830   0.01267  Uiso   1.00
C9     C     0.66000   0.40670   0.04380   0.01267  Uiso   1.00
C10    C     0.54870   0.42170   0.09070   0.01267  Uiso   1.00
C11    C     0.44080   0.36660   0.05460   0.01267  Uiso   1.00
C12    C     0.43860   0.30630   0.98060   0.01267  Uiso   1.00
C13    C     0.95080   0.79540   0.43630   0.01267  Uiso   1.00
C14    C     0.83950   0.84790   0.46830   0.01267  Uiso   1.00
C15    C     0.84000   0.90670   0.54380   0.01267  Uiso   1.00
C16    C     0.95130   0.92170   0.59070   0.01267  Uiso   1.00
C17    C     0.05920   0.86660   0.55460   0.01267  Uiso   1.00
C18    C     0.06140   0.80630   0.48060   0.01267  Uiso   1.00
C19    C     0.45080   0.70460   0.06370   0.01267  Uiso   1.00
C20    C     0.33950   0.65210   0.03170   0.01267  Uiso   1.00
C21    C     0.34000   0.59330   0.95620   0.01267  Uiso   1.00
C22    C     0.45130   0.57830   0.90930   0.01267  Uiso   1.00
C23    C     0.55920   0.63340   0.94540   0.01267  Uiso   1.00
C24    C     0.56140   0.69370   0.01940   0.01267  Uiso   1.00
N1     N     0.28130   0.04130   0.42860   0.01267  Uiso   1.00
N2     N     0.78130   0.45870   0.07140   0.01267  Uiso   1.00
N3     N     0.71870   0.95870   0.57140   0.01267  Uiso   1.00
N4     N     0.21870   0.54130   0.92860   0.01267  Uiso   1.00
O1     O     0.90520   0.25240   0.70670   0.01267  Uiso   1.00
O2     O     0.16860   0.23760   0.71330   0.01267  Uiso   1.00
O3     O     0.29850   0.00520   0.36090   0.01267  Uiso   1.00
O4     O     0.36440   0.03410   0.47410   0.01267  Uiso   1.00
O5     O     0.03760   0.01700   0.33980   0.01267  Uiso   1.00
O6     O     0.40520   0.24760   0.79330   0.01267  Uiso   1.00
O7     O     0.66860   0.26240   0.78670   0.01267  Uiso   1.00
O8     O     0.79850   0.49480   0.13910   0.01267  Uiso   1.00
O9     O     0.86440   0.46590   0.02590   0.01267  Uiso   1.00
O10    O     0.53760   0.48300   0.16020   0.01267  Uiso   1.00
O11    O     0.09480   0.74760   0.29330   0.01267  Uiso   1.00
O12    O     0.83140   0.76240   0.28670   0.01267  Uiso   1.00
O13    O     0.70150   0.99480   0.63910   0.01267  Uiso   1.00
O14    O     0.63560   0.96590   0.52590   0.01267  Uiso   1.00
O15    O     0.96240   0.98300   0.66020   0.01267  Uiso   1.00
O16    O     0.59480   0.75240   0.20670   0.01267  Uiso   1.00
O17    O     0.33140   0.73760   0.21330   0.01267  Uiso   1.00
O18    O     0.20150   0.50520   0.86090   0.01267  Uiso   1.00
O19    O     0.13560   0.53410   0.97410   0.01267  Uiso   1.00
O20    O     0.46240   0.51700   0.83980   0.01267  Uiso   1.00
