data_NUVWIL_clean
_audit_creation_date              2014-07-02
_audit_creation_method            'Materials Studio'
_symmetry_space_group_name_H-M    'P1'
_symmetry_Int_Tables_number       1
_symmetry_cell_setting            triclinic
loop_
_symmetry_equiv_pos_as_xyz
  x,y,z
_cell_length_a                    15.1180
_cell_length_b                    15.3708
_cell_length_c                    15.3708
_cell_angle_alpha                 120.0000
_cell_angle_beta                  90.0000
_cell_angle_gamma                 90.0000
loop_
_atom_site_label
_atom_site_type_symbol
_atom_site_fract_x
_atom_site_fract_y
_atom_site_fract_z
_atom_site_U_iso_or_equiv
_atom_site_adp_type
_atom_site_occupancy
La1    La    0.75000   0.33333   0.66666   0.01267  Uiso   1.00
La2    La    0.75000   0.66667   0.33334   0.01267  Uiso   1.00
La3    La    0.25000   0.66667   0.33334   0.01267  Uiso   1.00
La4    La    0.25000   0.33333   0.66666   0.01267  Uiso   1.00
Zn1    Zn    0.00000   0.50000   0.50000   0.01267  Uiso   1.00
Zn2    Zn    0.00000   0.00000   0.50000   0.01267  Uiso   1.00
Zn3    Zn    0.00000   0.50000   0.00000   0.01267  Uiso   1.00
Zn4    Zn    0.50000   0.00000   0.50000   0.01267  Uiso   1.00
Zn5    Zn    0.50000   0.50000   0.50000   0.01267  Uiso   1.00
Zn6    Zn    0.50000   0.50000   0.00000   0.01267  Uiso   1.00
H1     H     0.76060   0.28700   0.37890   0.01267  Uiso   1.00
H2     H     0.83580   0.21130   0.36720   0.01267  Uiso   1.00
H3     H     0.76060   0.09190   0.71300   0.01267  Uiso   1.00
H4     H     0.83580   0.15590   0.78870   0.01267  Uiso   1.00
H5     H     0.76060   0.62110   0.90810   0.01267  Uiso   1.00
H6     H     0.83580   0.63280   0.84410   0.01267  Uiso   1.00
H7     H     0.76060   0.71300   0.62110   0.01267  Uiso   1.00
H8     H     0.83580   0.78870   0.63280   0.01267  Uiso   1.00
H9     H     0.76060   0.90810   0.28700   0.01267  Uiso   1.00
H10    H     0.83580   0.84410   0.21130   0.01267  Uiso   1.00
H11    H     0.76060   0.37890   0.09190   0.01267  Uiso   1.00
H12    H     0.83580   0.36720   0.15590   0.01267  Uiso   1.00
H13    H     0.73940   0.90810   0.62110   0.01267  Uiso   1.00
H14    H     0.66420   0.84410   0.63280   0.01267  Uiso   1.00
H15    H     0.73940   0.37890   0.28700   0.01267  Uiso   1.00
H16    H     0.66420   0.36720   0.21130   0.01267  Uiso   1.00
H17    H     0.73940   0.71300   0.09190   0.01267  Uiso   1.00
H18    H     0.66420   0.78870   0.15590   0.01267  Uiso   1.00
H19    H     0.73940   0.09190   0.37890   0.01267  Uiso   1.00
H20    H     0.66420   0.15590   0.36720   0.01267  Uiso   1.00
H21    H     0.73940   0.62110   0.71300   0.01267  Uiso   1.00
H22    H     0.66420   0.63280   0.78870   0.01267  Uiso   1.00
H23    H     0.73940   0.28700   0.90810   0.01267  Uiso   1.00
H24    H     0.66420   0.21130   0.84410   0.01267  Uiso   1.00
H25    H     0.23940   0.71300   0.62110   0.01267  Uiso   1.00
H26    H     0.16420   0.78870   0.63280   0.01267  Uiso   1.00
H27    H     0.23940   0.90810   0.28700   0.01267  Uiso   1.00
H28    H     0.16420   0.84410   0.21130   0.01267  Uiso   1.00
H29    H     0.23940   0.37890   0.09190   0.01267  Uiso   1.00
H30    H     0.16420   0.36720   0.15590   0.01267  Uiso   1.00
H31    H     0.23940   0.28700   0.37890   0.01267  Uiso   1.00
H32    H     0.16420   0.21130   0.36720   0.01267  Uiso   1.00
H33    H     0.23940   0.09190   0.71300   0.01267  Uiso   1.00
H34    H     0.16420   0.15590   0.78870   0.01267  Uiso   1.00
H35    H     0.23940   0.62110   0.90810   0.01267  Uiso   1.00
H36    H     0.16420   0.63280   0.84410   0.01267  Uiso   1.00
H37    H     0.26060   0.09190   0.37890   0.01267  Uiso   1.00
H38    H     0.33580   0.15590   0.36720   0.01267  Uiso   1.00
H39    H     0.26060   0.62110   0.71300   0.01267  Uiso   1.00
H40    H     0.33580   0.63280   0.78870   0.01267  Uiso   1.00
H41    H     0.26060   0.28700   0.90810   0.01267  Uiso   1.00
H42    H     0.33580   0.21130   0.84410   0.01267  Uiso   1.00
H43    H     0.26060   0.90810   0.62110   0.01267  Uiso   1.00
H44    H     0.33580   0.84410   0.63280   0.01267  Uiso   1.00
H45    H     0.26060   0.37890   0.28700   0.01267  Uiso   1.00
H46    H     0.33580   0.36720   0.21130   0.01267  Uiso   1.00
H47    H     0.26060   0.71300   0.09190   0.01267  Uiso   1.00
H48    H     0.33580   0.78870   0.15590   0.01267  Uiso   1.00
C1     C     0.85840   0.35300   0.48270   0.01267  Uiso   1.00
C2     C     0.79990   0.26690   0.41560   0.01267  Uiso   1.00
C3     C     0.85840   0.12970   0.64700   0.01267  Uiso   1.00
C4     C     0.79990   0.14870   0.73310   0.01267  Uiso   1.00
C5     C     0.85840   0.51730   0.87030   0.01267  Uiso   1.00
C6     C     0.79990   0.58440   0.85130   0.01267  Uiso   1.00
C7     C     0.85840   0.64700   0.51730   0.01267  Uiso   1.00
C8     C     0.79990   0.73310   0.58440   0.01267  Uiso   1.00
C9     C     0.85840   0.87030   0.35300   0.01267  Uiso   1.00
C10    C     0.79990   0.85130   0.26690   0.01267  Uiso   1.00
C11    C     0.85840   0.48270   0.12970   0.01267  Uiso   1.00
C12    C     0.79990   0.41560   0.14870   0.01267  Uiso   1.00
C13    C     0.64160   0.87030   0.51730   0.01267  Uiso   1.00
C14    C     0.70010   0.85130   0.58440   0.01267  Uiso   1.00
C15    C     0.64160   0.48270   0.35300   0.01267  Uiso   1.00
C16    C     0.70010   0.41560   0.26690   0.01267  Uiso   1.00
C17    C     0.64160   0.64700   0.12970   0.01267  Uiso   1.00
C18    C     0.70010   0.73310   0.14870   0.01267  Uiso   1.00
C19    C     0.64160   0.12970   0.48270   0.01267  Uiso   1.00
C20    C     0.70010   0.14870   0.41560   0.01267  Uiso   1.00
C21    C     0.64160   0.51730   0.64700   0.01267  Uiso   1.00
C22    C     0.70010   0.58440   0.73310   0.01267  Uiso   1.00
C23    C     0.64160   0.35300   0.87030   0.01267  Uiso   1.00
C24    C     0.70010   0.26690   0.85130   0.01267  Uiso   1.00
C25    C     0.14160   0.64700   0.51730   0.01267  Uiso   1.00
C26    C     0.20010   0.73310   0.58440   0.01267  Uiso   1.00
C27    C     0.14160   0.87030   0.35300   0.01267  Uiso   1.00
C28    C     0.20010   0.85130   0.26690   0.01267  Uiso   1.00
C29    C     0.14160   0.48270   0.12970   0.01267  Uiso   1.00
C30    C     0.20010   0.41560   0.14870   0.01267  Uiso   1.00
C31    C     0.14160   0.35300   0.48270   0.01267  Uiso   1.00
C32    C     0.20010   0.26690   0.41560   0.01267  Uiso   1.00
C33    C     0.14160   0.12970   0.64700   0.01267  Uiso   1.00
C34    C     0.20010   0.14870   0.73310   0.01267  Uiso   1.00
C35    C     0.14160   0.51730   0.87030   0.01267  Uiso   1.00
C36    C     0.20010   0.58440   0.85130   0.01267  Uiso   1.00
C37    C     0.35840   0.12970   0.48270   0.01267  Uiso   1.00
C38    C     0.29990   0.14870   0.41560   0.01267  Uiso   1.00
C39    C     0.35840   0.51730   0.64700   0.01267  Uiso   1.00
C40    C     0.29990   0.58440   0.73310   0.01267  Uiso   1.00
C41    C     0.35840   0.35300   0.87030   0.01267  Uiso   1.00
C42    C     0.29990   0.26690   0.85130   0.01267  Uiso   1.00
C43    C     0.35840   0.87030   0.51730   0.01267  Uiso   1.00
C44    C     0.29990   0.85130   0.58440   0.01267  Uiso   1.00
C45    C     0.35840   0.48270   0.35300   0.01267  Uiso   1.00
C46    C     0.29990   0.41560   0.26690   0.01267  Uiso   1.00
C47    C     0.35840   0.64700   0.12970   0.01267  Uiso   1.00
C48    C     0.29990   0.73310   0.14870   0.01267  Uiso   1.00
O1     O     0.85804   0.38205   0.57490   0.01267  Uiso   1.00
O2     O     0.90405   0.38918   0.44119   0.01267  Uiso   1.00
O3     O     0.85804   0.19285   0.61795   0.01267  Uiso   1.00
O4     O     0.90405   0.05201   0.61082   0.01267  Uiso   1.00
O5     O     0.85804   0.42510   0.80715   0.01267  Uiso   1.00
O6     O     0.90405   0.55881   0.94799   0.01267  Uiso   1.00
O7     O     0.85804   0.61795   0.42510   0.01267  Uiso   1.00
O8     O     0.90405   0.61082   0.55881   0.01267  Uiso   1.00
O9     O     0.85804   0.80715   0.38205   0.01267  Uiso   1.00
O10    O     0.90405   0.94799   0.38918   0.01267  Uiso   1.00
O11    O     0.85804   0.57490   0.19285   0.01267  Uiso   1.00
O12    O     0.90405   0.44119   0.05201   0.01267  Uiso   1.00
O13    O     0.64196   0.80715   0.42510   0.01267  Uiso   1.00
O14    O     0.59595   0.94799   0.55881   0.01267  Uiso   1.00
O15    O     0.64196   0.57490   0.38205   0.01267  Uiso   1.00
O16    O     0.59595   0.44119   0.38918   0.01267  Uiso   1.00
O17    O     0.64196   0.61795   0.19285   0.01267  Uiso   1.00
O18    O     0.59595   0.61082   0.05201   0.01267  Uiso   1.00
O19    O     0.64196   0.19285   0.57490   0.01267  Uiso   1.00
O20    O     0.59595   0.05201   0.44119   0.01267  Uiso   1.00
O21    O     0.64196   0.42510   0.61795   0.01267  Uiso   1.00
O22    O     0.59595   0.55881   0.61082   0.01267  Uiso   1.00
O23    O     0.64196   0.38205   0.80715   0.01267  Uiso   1.00
O24    O     0.59595   0.38918   0.94799   0.01267  Uiso   1.00
O25    O     0.14196   0.61795   0.42510   0.01267  Uiso   1.00
O26    O     0.09595   0.61082   0.55881   0.01267  Uiso   1.00
O27    O     0.14196   0.80715   0.38205   0.01267  Uiso   1.00
O28    O     0.09595   0.94799   0.38918   0.01267  Uiso   1.00
O29    O     0.14196   0.57490   0.19285   0.01267  Uiso   1.00
O30    O     0.09595   0.44119   0.05201   0.01267  Uiso   1.00
O31    O     0.14196   0.38205   0.57490   0.01267  Uiso   1.00
O32    O     0.09595   0.38918   0.44119   0.01267  Uiso   1.00
O33    O     0.14196   0.19285   0.61795   0.01267  Uiso   1.00
O34    O     0.09595   0.05201   0.61082   0.01267  Uiso   1.00
O35    O     0.14196   0.42510   0.80715   0.01267  Uiso   1.00
O36    O     0.09595   0.55881   0.94799   0.01267  Uiso   1.00
O37    O     0.35804   0.19285   0.57490   0.01267  Uiso   1.00
O38    O     0.40405   0.05201   0.44119   0.01267  Uiso   1.00
O39    O     0.35804   0.42510   0.61795   0.01267  Uiso   1.00
O40    O     0.40405   0.55881   0.61082   0.01267  Uiso   1.00
O41    O     0.35804   0.38205   0.80715   0.01267  Uiso   1.00
O42    O     0.40405   0.38918   0.94799   0.01267  Uiso   1.00
O43    O     0.35804   0.80715   0.42510   0.01267  Uiso   1.00
O44    O     0.40405   0.94799   0.55881   0.01267  Uiso   1.00
O45    O     0.35804   0.57490   0.38205   0.01267  Uiso   1.00
O46    O     0.40405   0.44119   0.38918   0.01267  Uiso   1.00
O47    O     0.35804   0.61795   0.19285   0.01267  Uiso   1.00
O48    O     0.40405   0.61082   0.05201   0.01267  Uiso   1.00
O49    O     0.75000   0.23609   0.47218   0.01267  Uiso   1.00
O50    O     0.75000   0.23609   0.76391   0.01267  Uiso   1.00
O51    O     0.75000   0.52782   0.76391   0.01267  Uiso   1.00
O52    O     0.75000   0.76391   0.52782   0.01267  Uiso   1.00
O53    O     0.75000   0.76391   0.23609   0.01267  Uiso   1.00
O54    O     0.75000   0.47218   0.23609   0.01267  Uiso   1.00
O55    O     0.25000   0.76391   0.52782   0.01267  Uiso   1.00
O56    O     0.25000   0.76391   0.23609   0.01267  Uiso   1.00
O57    O     0.25000   0.47218   0.23609   0.01267  Uiso   1.00
O58    O     0.25000   0.23609   0.47218   0.01267  Uiso   1.00
O59    O     0.25000   0.23609   0.76391   0.01267  Uiso   1.00
O60    O     0.25000   0.52782   0.76391   0.01267  Uiso   1.00
