data_OBUFIB_clean
_audit_creation_date              2014-07-02
_audit_creation_method            'Materials Studio'
_symmetry_space_group_name_H-M    'P1'
_symmetry_Int_Tables_number       1
_symmetry_cell_setting            triclinic
loop_
_symmetry_equiv_pos_as_xyz
  x,y,z
_cell_length_a                    8.5416
_cell_length_b                    13.6688
_cell_length_c                    18.2250
_cell_angle_alpha                 88.2702
_cell_angle_beta                  84.4559
_cell_angle_gamma                 71.7932
loop_
_atom_site_label
_atom_site_type_symbol
_atom_site_fract_x
_atom_site_fract_y
_atom_site_fract_z
_atom_site_U_iso_or_equiv
_atom_site_adp_type
_atom_site_occupancy
Zn1    Zn    0.37707   0.44664   0.47113   0.01267  Uiso   1.00
Zn2    Zn    0.18991   0.67560   0.50836   0.01267  Uiso   1.00
Zn3    Zn    0.17629   0.44664   0.02887   0.01267  Uiso   1.00
Zn4    Zn    0.13449   0.67560   0.99164   0.01267  Uiso   1.00
Zn5    Zn    0.62293   0.55336   0.52887   0.01267  Uiso   1.00
Zn6    Zn    0.81009   0.32440   0.49164   0.01267  Uiso   1.00
Zn7    Zn    0.82371   0.55336   0.97113   0.01267  Uiso   1.00
Zn8    Zn    0.86551   0.32440   0.00836   0.01267  Uiso   1.00
H1     H     0.66740   0.38380   0.24070   0.01267  Uiso   1.00
H2     H     0.47900   0.65040   0.16340   0.01267  Uiso   1.00
H3     H     0.34850   0.61320   0.21370   0.01267  Uiso   1.00
H4     H     0.27280   0.98780   0.60680   0.01267  Uiso   1.00
H5     H     0.22520   0.83440   0.61270   0.01267  Uiso   1.00
H6     H     0.17070   0.84320   0.40490   0.01267  Uiso   1.00
H7     H     0.21180   0.99940   0.39420   0.01267  Uiso   1.00
H8     H     0.36040   0.11700   0.59190   0.01267  Uiso   1.00
H9     H     0.41930   0.26780   0.57650   0.01267  Uiso   1.00
H10    H     0.24620   0.30880   0.38730   0.01267  Uiso   1.00
H11    H     0.19610   0.15400   0.39490   0.01267  Uiso   1.00
H12    H     0.94880   0.38380   0.25930   0.01267  Uiso   1.00
H13    H     0.87060   0.65040   0.33660   0.01267  Uiso   1.00
H14    H     0.03830   0.61320   0.28630   0.01267  Uiso   1.00
H15    H     0.73940   0.98780   0.89320   0.01267  Uiso   1.00
H16    H     0.94040   0.83440   0.88730   0.01267  Uiso   1.00
H17    H     0.98610   0.84320   0.09510   0.01267  Uiso   1.00
H18    H     0.78880   0.99940   0.10580   0.01267  Uiso   1.00
H19    H     0.52260   0.11700   0.90810   0.01267  Uiso   1.00
H20    H     0.31290   0.26780   0.92350   0.01267  Uiso   1.00
H21    H     0.44500   0.30880   0.11270   0.01267  Uiso   1.00
H22    H     0.64990   0.15400   0.10510   0.01267  Uiso   1.00
H23    H     0.33260   0.61620   0.75930   0.01267  Uiso   1.00
H24    H     0.52100   0.34960   0.83660   0.01267  Uiso   1.00
H25    H     0.65150   0.38680   0.78630   0.01267  Uiso   1.00
H26    H     0.72720   0.01220   0.39320   0.01267  Uiso   1.00
H27    H     0.77480   0.16560   0.38730   0.01267  Uiso   1.00
H28    H     0.82930   0.15680   0.59510   0.01267  Uiso   1.00
H29    H     0.78820   0.00060   0.60580   0.01267  Uiso   1.00
H30    H     0.63960   0.88300   0.40810   0.01267  Uiso   1.00
H31    H     0.58070   0.73220   0.42350   0.01267  Uiso   1.00
H32    H     0.75380   0.69120   0.61270   0.01267  Uiso   1.00
H33    H     0.80390   0.84600   0.60510   0.01267  Uiso   1.00
H34    H     0.05120   0.61620   0.74070   0.01267  Uiso   1.00
H35    H     0.12940   0.34960   0.66340   0.01267  Uiso   1.00
H36    H     0.96170   0.38680   0.71370   0.01267  Uiso   1.00
H37    H     0.26060   0.01220   0.10680   0.01267  Uiso   1.00
H38    H     0.05960   0.16560   0.11270   0.01267  Uiso   1.00
H39    H     0.01390   0.15680   0.90490   0.01267  Uiso   1.00
H40    H     0.21120   0.00060   0.89420   0.01267  Uiso   1.00
H41    H     0.47740   0.88300   0.09190   0.01267  Uiso   1.00
H42    H     0.68710   0.73220   0.07650   0.01267  Uiso   1.00
H43    H     0.55500   0.69120   0.88730   0.01267  Uiso   1.00
H44    H     0.35010   0.84600   0.89490   0.01267  Uiso   1.00
C1     C     0.50182   0.48636   0.31885   0.01267  Uiso   1.00
C2     C     0.58653   0.44794   0.24237   0.01267  Uiso   1.00
C3     C     0.55904   0.49332   0.18191   0.01267  Uiso   1.00
C4     C     0.68052   0.45456   0.11382   0.01267  Uiso   1.00
C5     C     0.42729   0.59642   0.17038   0.01267  Uiso   1.00
C6     C     0.33712   0.59056   0.10263   0.01267  Uiso   1.00
C7     C     0.25000   0.96040   0.56449   0.01267  Uiso   1.00
C8     C     0.22315   0.86810   0.56757   0.01267  Uiso   1.00
C9     C     0.19060   0.87320   0.44671   0.01267  Uiso   1.00
C10    C     0.21503   0.96714   0.43999   0.01267  Uiso   1.00
C11    C     0.24389   0.01422   0.49966   0.01267  Uiso   1.00
C12    C     0.27584   0.11372   0.49394   0.01267  Uiso   1.00
C13    C     0.33904   0.15332   0.54813   0.01267  Uiso   1.00
C14    C     0.37160   0.24520   0.53931   0.01267  Uiso   1.00
C15    C     0.27299   0.26842   0.42908   0.01267  Uiso   1.00
C16    C     0.24134   0.17512   0.43356   0.01267  Uiso   1.00
C17    C     0.01182   0.48636   0.18115   0.01267  Uiso   1.00
C18    C     0.96553   0.44794   0.25763   0.01267  Uiso   1.00
C19    C     0.94764   0.49332   0.31809   0.01267  Uiso   1.00
C20    C     0.86492   0.45456   0.38618   0.01267  Uiso   1.00
C21    C     0.97629   0.59642   0.32962   0.01267  Uiso   1.00
C22    C     0.07232   0.59056   0.39737   0.01267  Uiso   1.00
C23    C     0.78960   0.96040   0.93551   0.01267  Uiso   1.00
C24    C     0.90875   0.86810   0.93243   0.01267  Uiso   1.00
C25    C     0.93620   0.87320   0.05329   0.01267  Uiso   1.00
C26    C     0.81783   0.96714   0.06001   0.01267  Uiso   1.00
C27    C     0.74189   0.01422   0.00034   0.01267  Uiso   1.00
C28    C     0.61044   0.11372   0.00606   0.01267  Uiso   1.00
C29    C     0.50764   0.15332   0.95187   0.01267  Uiso   1.00
C30    C     0.38320   0.24520   0.96069   0.01267  Uiso   1.00
C31    C     0.45859   0.26842   0.07092   0.01267  Uiso   1.00
C32    C     0.58354   0.17512   0.06644   0.01267  Uiso   1.00
C33    C     0.49818   0.51364   0.68115   0.01267  Uiso   1.00
C34    C     0.41347   0.55206   0.75763   0.01267  Uiso   1.00
C35    C     0.44096   0.50668   0.81809   0.01267  Uiso   1.00
C36    C     0.31948   0.54544   0.88618   0.01267  Uiso   1.00
C37    C     0.57271   0.40358   0.82962   0.01267  Uiso   1.00
C38    C     0.66288   0.40944   0.89737   0.01267  Uiso   1.00
C39    C     0.75000   0.03960   0.43551   0.01267  Uiso   1.00
C40    C     0.77685   0.13190   0.43243   0.01267  Uiso   1.00
C41    C     0.80940   0.12680   0.55329   0.01267  Uiso   1.00
C42    C     0.78497   0.03286   0.56001   0.01267  Uiso   1.00
C43    C     0.75611   0.98578   0.50034   0.01267  Uiso   1.00
C44    C     0.72416   0.88628   0.50606   0.01267  Uiso   1.00
C45    C     0.66096   0.84668   0.45187   0.01267  Uiso   1.00
C46    C     0.62840   0.75480   0.46069   0.01267  Uiso   1.00
C47    C     0.72701   0.73158   0.57092   0.01267  Uiso   1.00
C48    C     0.75866   0.82488   0.56644   0.01267  Uiso   1.00
C49    C     0.98818   0.51364   0.81885   0.01267  Uiso   1.00
C50    C     0.03447   0.55206   0.74237   0.01267  Uiso   1.00
C51    C     0.05236   0.50668   0.68191   0.01267  Uiso   1.00
C52    C     0.13508   0.54544   0.61382   0.01267  Uiso   1.00
C53    C     0.02371   0.40358   0.67038   0.01267  Uiso   1.00
C54    C     0.92768   0.40944   0.60263   0.01267  Uiso   1.00
C55    C     0.21040   0.03960   0.06449   0.01267  Uiso   1.00
C56    C     0.09125   0.13190   0.06757   0.01267  Uiso   1.00
C57    C     0.06380   0.12680   0.94671   0.01267  Uiso   1.00
C58    C     0.18217   0.03286   0.93999   0.01267  Uiso   1.00
C59    C     0.25811   0.98578   0.99966   0.01267  Uiso   1.00
C60    C     0.38956   0.88628   0.99394   0.01267  Uiso   1.00
C61    C     0.49236   0.84668   0.04813   0.01267  Uiso   1.00
C62    C     0.61680   0.75480   0.03931   0.01267  Uiso   1.00
C63    C     0.54141   0.73158   0.92908   0.01267  Uiso   1.00
C64    C     0.41646   0.82488   0.93356   0.01267  Uiso   1.00
N1     N     0.19409   0.82328   0.50910   0.01267  Uiso   1.00
N2     N     0.33767   0.30248   0.47995   0.01267  Uiso   1.00
N3     N     0.98263   0.82328   0.99090   0.01267  Uiso   1.00
N4     N     0.35985   0.30248   0.02005   0.01267  Uiso   1.00
N5     N     0.80591   0.17672   0.49090   0.01267  Uiso   1.00
N6     N     0.66233   0.69752   0.52005   0.01267  Uiso   1.00
N7     N     0.01737   0.17672   0.00910   0.01267  Uiso   1.00
N8     N     0.64015   0.69752   0.97995   0.01267  Uiso   1.00
O1     O     0.45156   0.58868   0.32822   0.01267  Uiso   1.00
O2     O     0.50173   0.41118   0.36589   0.01267  Uiso   1.00
O3     O     0.74782   0.35804   0.10537   0.01267  Uiso   1.00
O4     O     0.70480   0.52102   0.07316   0.01267  Uiso   1.00
O5     O     0.33650   0.50780   0.08071   0.01267  Uiso   1.00
O6     O     0.26562   0.67644   0.07330   0.01267  Uiso   1.00
O7     O     0.41104   0.59334   0.47435   0.01267  Uiso   1.00
O8     O     0.95976   0.58868   0.17178   0.01267  Uiso   1.00
O9     O     0.08709   0.41118   0.13411   0.01267  Uiso   1.00
O10    O     0.89414   0.35804   0.39463   0.01267  Uiso   1.00
O11    O     0.77418   0.52102   0.42684   0.01267  Uiso   1.00
O12    O     0.15570   0.50780   0.41929   0.01267  Uiso   1.00
O13    O     0.05794   0.67644   0.42670   0.01267  Uiso   1.00
O14    O     0.99562   0.59334   0.02565   0.01267  Uiso   1.00
O15    O     0.54844   0.41132   0.67178   0.01267  Uiso   1.00
O16    O     0.49827   0.58882   0.63411   0.01267  Uiso   1.00
O17    O     0.25218   0.64196   0.89463   0.01267  Uiso   1.00
O18    O     0.29520   0.47898   0.92684   0.01267  Uiso   1.00
O19    O     0.66350   0.49220   0.91929   0.01267  Uiso   1.00
O20    O     0.73438   0.32356   0.92670   0.01267  Uiso   1.00
O21    O     0.58896   0.40666   0.52565   0.01267  Uiso   1.00
O22    O     0.04024   0.41132   0.82822   0.01267  Uiso   1.00
O23    O     0.91291   0.58882   0.86589   0.01267  Uiso   1.00
O24    O     0.10586   0.64196   0.60537   0.01267  Uiso   1.00
O25    O     0.22582   0.47898   0.57316   0.01267  Uiso   1.00
O26    O     0.84430   0.49220   0.58071   0.01267  Uiso   1.00
O27    O     0.94206   0.32356   0.57330   0.01267  Uiso   1.00
O28    O     0.00438   0.40666   0.97435   0.01267  Uiso   1.00
