data_OCIYUW_charged
_audit_creation_date              2014-07-02
_audit_creation_method            'Materials Studio'
_symmetry_space_group_name_H-M    'P1'
_symmetry_Int_Tables_number       1
_symmetry_cell_setting            triclinic
loop_
_symmetry_equiv_pos_as_xyz
  x,y,z
_cell_length_a                    11.0746
_cell_length_b                    15.4736
_cell_length_c                    15.4736
_cell_angle_alpha                 65.5042
_cell_angle_beta                  76.1978
_cell_angle_gamma                 103.8020
loop_
_atom_site_label
_atom_site_type_symbol
_atom_site_fract_x
_atom_site_fract_y
_atom_site_fract_z
_atom_site_U_iso_or_equiv
_atom_site_adp_type
_atom_site_occupancy
Ag1    Ag    0.40993   0.52360   0.56883   0.01267  Uiso   1.00
Ag2    Ag    0.97876   0.56883   0.90757   0.01267  Uiso   1.00
Ag3    Ag    0.88633   0.90757   0.52360   0.01267  Uiso   1.00
Ag4    Ag    0.59007   0.47640   0.43117   0.01267  Uiso   1.00
Ag5    Ag    0.02124   0.43117   0.09243   0.01267  Uiso   1.00
Ag6    Ag    0.11367   0.09243   0.47640   0.01267  Uiso   1.00
H1     H     0.15880   0.58430   0.69290   0.01267  Uiso   1.00
H2     H     0.30390   0.39640   0.06930   0.01267  Uiso   1.00
H3     H     0.47480   0.39680   0.94760   0.01267  Uiso   1.00
H4     H     0.48050   0.45450   0.78060   0.01267  Uiso   1.00
H5     H     0.85170   0.69290   0.72280   0.01267  Uiso   1.00
H6     H     0.37320   0.06930   0.53430   0.01267  Uiso   1.00
H7     H     0.42240   0.94760   0.65560   0.01267  Uiso   1.00
H8     H     0.26110   0.78060   0.76490   0.01267  Uiso   1.00
H9     H     0.57450   0.72280   0.58430   0.01267  Uiso   1.00
H10    H     0.90750   0.53430   0.39640   0.01267  Uiso   1.00
H11    H     0.07800   0.65560   0.39680   0.01267  Uiso   1.00
H12    H     0.02600   0.76490   0.45450   0.01267  Uiso   1.00
H13    H     0.84120   0.41570   0.30710   0.01267  Uiso   1.00
H14    H     0.69610   0.60360   0.93070   0.01267  Uiso   1.00
H15    H     0.52520   0.60320   0.05240   0.01267  Uiso   1.00
H16    H     0.51950   0.54550   0.21940   0.01267  Uiso   1.00
H17    H     0.14830   0.30710   0.27720   0.01267  Uiso   1.00
H18    H     0.62680   0.93070   0.46570   0.01267  Uiso   1.00
H19    H     0.57760   0.05240   0.34440   0.01267  Uiso   1.00
H20    H     0.73890   0.21940   0.23510   0.01267  Uiso   1.00
H21    H     0.42550   0.27720   0.41570   0.01267  Uiso   1.00
H22    H     0.09250   0.46570   0.60360   0.01267  Uiso   1.00
H23    H     0.92200   0.34440   0.60320   0.01267  Uiso   1.00
H24    H     0.97400   0.23510   0.54550   0.01267  Uiso   1.00
C1     C     0.19418   0.55310   0.74267   0.01267  Uiso   1.00
C2     C     0.21853   0.48955   0.88366   0.01267  Uiso   1.00
C3     C     0.30564   0.42112   0.00150   0.01267  Uiso   1.00
C4     C     0.40850   0.42070   0.92890   0.01267  Uiso   1.00
C5     C     0.41303   0.45472   0.83161   0.01267  Uiso   1.00
C6     C     0.93685   0.74267   0.70423   0.01267  Uiso   1.00
C7     C     0.10219   0.88366   0.62679   0.01267  Uiso   1.00
C8     C     0.30714   0.00150   0.57738   0.01267  Uiso   1.00
C9     C     0.33740   0.92890   0.65040   0.01267  Uiso   1.00
C10    C     0.24464   0.83161   0.71367   0.01267  Uiso   1.00
C11    C     0.64108   0.70423   0.55310   0.01267  Uiso   1.00
C12    C     0.72898   0.62679   0.48955   0.01267  Uiso   1.00
C13    C     0.88452   0.57738   0.42112   0.01267  Uiso   1.00
C14    C     0.98780   0.65040   0.42070   0.01267  Uiso   1.00
C15    C     0.95831   0.71367   0.45472   0.01267  Uiso   1.00
C16    C     0.80582   0.44690   0.25733   0.01267  Uiso   1.00
C17    C     0.78147   0.51045   0.11634   0.01267  Uiso   1.00
C18    C     0.69436   0.57888   0.99850   0.01267  Uiso   1.00
C19    C     0.59150   0.57930   0.07110   0.01267  Uiso   1.00
C20    C     0.58697   0.54528   0.16839   0.01267  Uiso   1.00
C21    C     0.06315   0.25733   0.29577   0.01267  Uiso   1.00
C22    C     0.89781   0.11634   0.37321   0.01267  Uiso   1.00
C23    C     0.69286   0.99850   0.42262   0.01267  Uiso   1.00
C24    C     0.66260   0.07110   0.34960   0.01267  Uiso   1.00
C25    C     0.75536   0.16839   0.28633   0.01267  Uiso   1.00
C26    C     0.35892   0.29577   0.44690   0.01267  Uiso   1.00
C27    C     0.27102   0.37321   0.51045   0.01267  Uiso   1.00
C28    C     0.11548   0.42262   0.57888   0.01267  Uiso   1.00
C29    C     0.01220   0.34960   0.57930   0.01267  Uiso   1.00
C30    C     0.04169   0.28633   0.54528   0.01267  Uiso   1.00
N1     N     0.29992   0.52925   0.72002   0.01267  Uiso   1.00
N2     N     0.14037   0.53034   0.84066   0.01267  Uiso   1.00
N3     N     0.21026   0.45430   0.98053   0.01267  Uiso   1.00
N4     N     0.31604   0.48926   0.81119   0.01267  Uiso   1.00
N5     N     0.01994   0.72002   0.75073   0.01267  Uiso   1.00
N6     N     0.98103   0.84066   0.62900   0.01267  Uiso   1.00
N7     N     0.19079   0.98053   0.56517   0.01267  Uiso   1.00
N8     N     0.12723   0.81119   0.69955   0.01267  Uiso   1.00
N9     N     0.77067   0.75073   0.52925   0.01267  Uiso   1.00
N10    N     0.61003   0.62900   0.53034   0.01267  Uiso   1.00
N11    N     0.75596   0.56517   0.45430   0.01267  Uiso   1.00
N12    N     0.82678   0.69955   0.48926   0.01267  Uiso   1.00
N13    N     0.70008   0.47075   0.27998   0.01267  Uiso   1.00
N14    N     0.85963   0.46966   0.15934   0.01267  Uiso   1.00
N15    N     0.78974   0.54570   0.01947   0.01267  Uiso   1.00
N16    N     0.68396   0.51074   0.18881   0.01267  Uiso   1.00
N17    N     0.98006   0.27998   0.24927   0.01267  Uiso   1.00
N18    N     0.01897   0.15934   0.37100   0.01267  Uiso   1.00
N19    N     0.80921   0.01947   0.43483   0.01267  Uiso   1.00
N20    N     0.87277   0.18881   0.30045   0.01267  Uiso   1.00
N21    N     0.22933   0.24927   0.47075   0.01267  Uiso   1.00
N22    N     0.38997   0.37100   0.46966   0.01267  Uiso   1.00
N23    N     0.24404   0.43483   0.54570   0.01267  Uiso   1.00
N24    N     0.17322   0.30045   0.51074   0.01267  Uiso   1.00
O1     O     0.44460   0.38430   0.66000   0.01267  Uiso   1.00
O2     O     0.10460   0.66000   0.95570   0.01267  Uiso   1.00
O3     O     0.06030   0.95570   0.38430   0.01267  Uiso   1.00
O4     O     0.55540   0.61570   0.34000   0.01267  Uiso   1.00
O5     O     0.89540   0.34000   0.04430   0.01267  Uiso   1.00
O6     O     0.93970   0.04430   0.61570   0.01267  Uiso   1.00
P1     P     0.33715   0.79274   0.45188   0.01267  Uiso   1.00
F1     F     0.27949   0.80419   0.36502   0.01267  Uiso   1.00
F2     F     0.39380   0.77960   0.54041   0.01267  Uiso   1.00
F3     F     0.48297   0.82460   0.37553   0.01267  Uiso   1.00
F4     F     0.30229   0.67503   0.48846   0.01267  Uiso   1.00
F5     F     0.36829   0.90928   0.41911   0.01267  Uiso   1.00
F6     F     0.19174   0.76258   0.53005   0.01267  Uiso   1.00
P2     P     0.78903   0.45188   0.75538   0.01267  Uiso   1.00
F7     F     0.64451   0.36502   0.83079   0.01267  Uiso   1.00
F8     F     0.93421   0.54041   0.67999   0.01267  Uiso   1.00
F9     F     0.85850   0.37553   0.79987   0.01267  Uiso   1.00
F10    F     0.79075   0.48846   0.83651   0.01267  Uiso   1.00
F11    F     0.78740   0.41911   0.67161   0.01267  Uiso   1.00
F12    F     0.72179   0.53005   0.70737   0.01267  Uiso   1.00
P3     P     0.54441   0.75538   0.79274   0.01267  Uiso   1.00
F13    F     0.47530   0.83079   0.80419   0.01267  Uiso   1.00
F14    F     0.61420   0.67999   0.77960   0.01267  Uiso   1.00
F15    F     0.65837   0.79987   0.82460   0.01267  Uiso   1.00
F16    F     0.62726   0.83651   0.67503   0.01267  Uiso   1.00
F17    F     0.45901   0.67161   0.90928   0.01267  Uiso   1.00
F18    F     0.42916   0.70737   0.76258   0.01267  Uiso   1.00
P4     P     0.66285   0.20726   0.54812   0.01267  Uiso   1.00
F19    F     0.72051   0.19581   0.63498   0.01267  Uiso   1.00
F20    F     0.60620   0.22040   0.45959   0.01267  Uiso   1.00
F21    F     0.51703   0.17540   0.62447   0.01267  Uiso   1.00
F22    F     0.69771   0.32497   0.51154   0.01267  Uiso   1.00
F23    F     0.63171   0.09072   0.58089   0.01267  Uiso   1.00
F24    F     0.80826   0.23742   0.46995   0.01267  Uiso   1.00
P5     P     0.21097   0.54812   0.24462   0.01267  Uiso   1.00
F25    F     0.35549   0.63498   0.16921   0.01267  Uiso   1.00
F26    F     0.06579   0.45959   0.32001   0.01267  Uiso   1.00
F27    F     0.14150   0.62447   0.20013   0.01267  Uiso   1.00
F28    F     0.20925   0.51154   0.16349   0.01267  Uiso   1.00
F29    F     0.21260   0.58089   0.32839   0.01267  Uiso   1.00
F30    F     0.27821   0.46995   0.29263   0.01267  Uiso   1.00
P6     P     0.45559   0.24462   0.20726   0.01267  Uiso   1.00
F31    F     0.52470   0.16921   0.19581   0.01267  Uiso   1.00
F32    F     0.38580   0.32001   0.22040   0.01267  Uiso   1.00
F33    F     0.34163   0.20013   0.17540   0.01267  Uiso   1.00
F34    F     0.37274   0.16349   0.32497   0.01267  Uiso   1.00
F35    F     0.54099   0.32839   0.09072   0.01267  Uiso   1.00
F36    F     0.57084   0.29263   0.23742   0.01267  Uiso   1.00
