data_ODELOZ_clean
_audit_creation_date              2014-07-02
_audit_creation_method            'Materials Studio'
_symmetry_space_group_name_H-M    'P1'
_symmetry_Int_Tables_number       1
_symmetry_cell_setting            triclinic
loop_
_symmetry_equiv_pos_as_xyz
  x,y,z
_cell_length_a                    7.4670
_cell_length_b                    7.8816
_cell_length_c                    9.3289
_cell_angle_alpha                 90.0000
_cell_angle_beta                  90.0000
_cell_angle_gamma                 118.2750
loop_
_atom_site_label
_atom_site_type_symbol
_atom_site_fract_x
_atom_site_fract_y
_atom_site_fract_z
_atom_site_U_iso_or_equiv
_atom_site_adp_type
_atom_site_occupancy
V1     V     0.55506   0.52168   0.75000   0.01267  Uiso   1.00
V2     V     0.44494   0.47832   0.25000   0.01267  Uiso   1.00
V3     V     0.96662   0.52168   0.75000   0.01267  Uiso   1.00
V4     V     0.03338   0.47832   0.25000   0.01267  Uiso   1.00
P1     P     0.65674   0.31348   0.48400   0.01267  Uiso   1.00
P2     P     0.34326   0.68652   0.98400   0.01267  Uiso   1.00
P3     P     0.65674   0.31348   0.01600   0.01267  Uiso   1.00
P4     P     0.34326   0.68652   0.51600   0.01267  Uiso   1.00
H1     H     0.42340   0.06120   0.61980   0.01267  Uiso   1.00
H2     H     0.57660   0.93880   0.11980   0.01267  Uiso   1.00
H3     H     0.63780   0.06120   0.88020   0.01267  Uiso   1.00
H4     H     0.36220   0.93880   0.38020   0.01267  Uiso   1.00
H5     H     0.57660   0.93880   0.38020   0.01267  Uiso   1.00
H6     H     0.42340   0.06120   0.88020   0.01267  Uiso   1.00
H7     H     0.36220   0.93880   0.11980   0.01267  Uiso   1.00
H8     H     0.63780   0.06120   0.61980   0.01267  Uiso   1.00
H9     H     0.08000   0.16000   0.19200   0.01267  Uiso   1.00
H10    H     0.92000   0.84000   0.69200   0.01267  Uiso   1.00
H11    H     0.08000   0.16000   0.30800   0.01267  Uiso   1.00
H12    H     0.92000   0.84000   0.80800   0.01267  Uiso   1.00
C1     C     0.53877   0.07754   0.55850   0.01267  Uiso   1.00
C2     C     0.46123   0.92246   0.05850   0.01267  Uiso   1.00
C3     C     0.53877   0.07754   0.94150   0.01267  Uiso   1.00
C4     C     0.46123   0.92246   0.44150   0.01267  Uiso   1.00
O1     O     0.49482   0.33266   0.39904   0.01267  Uiso   1.00
O2     O     0.50518   0.66734   0.89904   0.01267  Uiso   1.00
O3     O     0.83784   0.33266   0.10096   0.01267  Uiso   1.00
O4     O     0.16216   0.66734   0.60096   0.01267  Uiso   1.00
O5     O     0.50518   0.66734   0.60096   0.01267  Uiso   1.00
O6     O     0.49482   0.33266   0.10096   0.01267  Uiso   1.00
O7     O     0.16216   0.66734   0.89904   0.01267  Uiso   1.00
O8     O     0.83784   0.33266   0.39904   0.01267  Uiso   1.00
O9     O     0.73055   0.46110   0.61055   0.01267  Uiso   1.00
O10    O     0.26945   0.53890   0.11055   0.01267  Uiso   1.00
O11    O     0.73055   0.46110   0.88945   0.01267  Uiso   1.00
O12    O     0.26945   0.53890   0.38945   0.01267  Uiso   1.00
O13    O     0.10926   0.21852   0.25000   0.01267  Uiso   1.00
O14    O     0.89074   0.78148   0.75000   0.01267  Uiso   1.00
