data_OHOFIA_clean
_audit_creation_date              2014-07-02
_audit_creation_method            'Materials Studio'
_symmetry_space_group_name_H-M    'P1'
_symmetry_Int_Tables_number       1
_symmetry_cell_setting            triclinic
loop_
_symmetry_equiv_pos_as_xyz
  x,y,z
_cell_length_a                    7.7720
_cell_length_b                    19.3110
_cell_length_c                    19.3110
_cell_angle_alpha                 120.0000
_cell_angle_beta                  90.0000
_cell_angle_gamma                 90.0000
loop_
_atom_site_label
_atom_site_type_symbol
_atom_site_fract_x
_atom_site_fract_y
_atom_site_fract_z
_atom_site_U_iso_or_equiv
_atom_site_adp_type
_atom_site_occupancy
Co1    Co    0.50000   0.54573   0.54573   0.01267  Uiso   1.00
Co2    Co    0.50000   0.00000   0.45427   0.01267  Uiso   1.00
Co3    Co    0.50000   0.45427   0.00000   0.01267  Uiso   1.00
H1     H     0.67300   0.71010   0.67190   0.01267  Uiso   1.00
H2     H     0.80160   0.88530   0.42880   0.01267  Uiso   1.00
H3     H     0.35630   0.62190   0.44870   0.01267  Uiso   1.00
H4     H     0.47290   0.66610   0.41670   0.01267  Uiso   1.00
H5     H     0.31060   0.70910   0.46880   0.01267  Uiso   1.00
H6     H     0.83640   0.82870   0.73290   0.01267  Uiso   1.00
H7     H     0.74550   0.89530   0.72240   0.01267  Uiso   1.00
H8     H     0.90220   0.84830   0.66790   0.01267  Uiso   1.00
H9     H     0.28450   0.95200   0.56360   0.01267  Uiso   1.00
H10    H     0.34690   0.93480   0.63070   0.01267  Uiso   1.00
H11    H     0.25910   0.86690   0.55340   0.01267  Uiso   1.00
H12    H     0.99430   0.79290   0.43540   0.01267  Uiso   1.00
H13    H     0.89330   0.72390   0.43780   0.01267  Uiso   1.00
H14    H     0.98340   0.79050   0.51530   0.01267  Uiso   1.00
H15    H     0.67300   0.96180   0.28990   0.01267  Uiso   1.00
H16    H     0.80160   0.54350   0.11470   0.01267  Uiso   1.00
H17    H     0.35630   0.82680   0.37810   0.01267  Uiso   1.00
H18    H     0.47290   0.75060   0.33390   0.01267  Uiso   1.00
H19    H     0.31060   0.75970   0.29090   0.01267  Uiso   1.00
H20    H     0.83640   0.90420   0.17130   0.01267  Uiso   1.00
H21    H     0.74550   0.82710   0.10470   0.01267  Uiso   1.00
H22    H     0.90220   0.81960   0.15170   0.01267  Uiso   1.00
H23    H     0.28450   0.61160   0.04800   0.01267  Uiso   1.00
H24    H     0.34690   0.69590   0.06520   0.01267  Uiso   1.00
H25    H     0.25910   0.68650   0.13310   0.01267  Uiso   1.00
H26    H     0.99430   0.64250   0.20710   0.01267  Uiso   1.00
H27    H     0.89330   0.71390   0.27610   0.01267  Uiso   1.00
H28    H     0.98340   0.72480   0.20950   0.01267  Uiso   1.00
H29    H     0.67300   0.32810   0.03820   0.01267  Uiso   1.00
H30    H     0.80160   0.57120   0.45650   0.01267  Uiso   1.00
H31    H     0.35630   0.55130   0.17320   0.01267  Uiso   1.00
H32    H     0.47290   0.58330   0.24940   0.01267  Uiso   1.00
H33    H     0.31060   0.53120   0.24030   0.01267  Uiso   1.00
H34    H     0.83640   0.26710   0.09580   0.01267  Uiso   1.00
H35    H     0.74550   0.27760   0.17290   0.01267  Uiso   1.00
H36    H     0.90220   0.33210   0.18040   0.01267  Uiso   1.00
H37    H     0.28450   0.43640   0.38840   0.01267  Uiso   1.00
H38    H     0.34690   0.36930   0.30410   0.01267  Uiso   1.00
H39    H     0.25910   0.44660   0.31350   0.01267  Uiso   1.00
H40    H     0.99430   0.56460   0.35750   0.01267  Uiso   1.00
H41    H     0.89330   0.56220   0.28610   0.01267  Uiso   1.00
H42    H     0.98340   0.48470   0.27520   0.01267  Uiso   1.00
H43    H     0.32700   0.03820   0.32810   0.01267  Uiso   1.00
H44    H     0.19840   0.45650   0.57120   0.01267  Uiso   1.00
H45    H     0.64370   0.17320   0.55130   0.01267  Uiso   1.00
H46    H     0.52710   0.24940   0.58330   0.01267  Uiso   1.00
H47    H     0.68940   0.24030   0.53120   0.01267  Uiso   1.00
H48    H     0.16360   0.09580   0.26710   0.01267  Uiso   1.00
H49    H     0.25450   0.17290   0.27760   0.01267  Uiso   1.00
H50    H     0.09780   0.18040   0.33210   0.01267  Uiso   1.00
H51    H     0.71550   0.38840   0.43640   0.01267  Uiso   1.00
H52    H     0.65310   0.30410   0.36930   0.01267  Uiso   1.00
H53    H     0.74090   0.31350   0.44660   0.01267  Uiso   1.00
H54    H     0.00570   0.35750   0.56460   0.01267  Uiso   1.00
H55    H     0.10670   0.28610   0.56220   0.01267  Uiso   1.00
H56    H     0.01660   0.27520   0.48470   0.01267  Uiso   1.00
H57    H     0.32700   0.67190   0.71010   0.01267  Uiso   1.00
H58    H     0.19840   0.42880   0.88530   0.01267  Uiso   1.00
H59    H     0.64370   0.44870   0.62190   0.01267  Uiso   1.00
H60    H     0.52710   0.41670   0.66610   0.01267  Uiso   1.00
H61    H     0.68940   0.46880   0.70910   0.01267  Uiso   1.00
H62    H     0.16360   0.73290   0.82870   0.01267  Uiso   1.00
H63    H     0.25450   0.72240   0.89530   0.01267  Uiso   1.00
H64    H     0.09780   0.66790   0.84830   0.01267  Uiso   1.00
H65    H     0.71550   0.56360   0.95200   0.01267  Uiso   1.00
H66    H     0.65310   0.63070   0.93480   0.01267  Uiso   1.00
H67    H     0.74090   0.55340   0.86690   0.01267  Uiso   1.00
H68    H     0.00570   0.43540   0.79290   0.01267  Uiso   1.00
H69    H     0.10670   0.43780   0.72390   0.01267  Uiso   1.00
H70    H     0.01660   0.51530   0.79050   0.01267  Uiso   1.00
H71    H     0.32700   0.28990   0.96180   0.01267  Uiso   1.00
H72    H     0.19840   0.11470   0.54350   0.01267  Uiso   1.00
H73    H     0.64370   0.37810   0.82680   0.01267  Uiso   1.00
H74    H     0.52710   0.33390   0.75060   0.01267  Uiso   1.00
H75    H     0.68940   0.29090   0.75970   0.01267  Uiso   1.00
H76    H     0.16360   0.17130   0.90420   0.01267  Uiso   1.00
H77    H     0.25450   0.10470   0.82710   0.01267  Uiso   1.00
H78    H     0.09780   0.15170   0.81960   0.01267  Uiso   1.00
H79    H     0.71550   0.04800   0.61160   0.01267  Uiso   1.00
H80    H     0.65310   0.06520   0.69590   0.01267  Uiso   1.00
H81    H     0.74090   0.13310   0.68650   0.01267  Uiso   1.00
H82    H     0.00570   0.20710   0.64250   0.01267  Uiso   1.00
H83    H     0.10670   0.27610   0.71390   0.01267  Uiso   1.00
H84    H     0.01660   0.20950   0.72480   0.01267  Uiso   1.00
C1     C     0.68170   0.78320   0.63520   0.01267  Uiso   1.00
C2     C     0.59760   0.77820   0.56960   0.01267  Uiso   1.00
C3     C     0.50950   0.70540   0.53420   0.01267  Uiso   1.00
C4     C     0.40290   0.67270   0.46050   0.01267  Uiso   1.00
C5     C     0.80230   0.84440   0.69500   0.01267  Uiso   1.00
C6     C     0.75980   0.82930   0.49000   0.01267  Uiso   1.00
C7     C     0.61920   0.83120   0.53530   0.01267  Uiso   1.00
C8     C     0.50590   0.88770   0.53440   0.01267  Uiso   1.00
C9     C     0.33360   0.91260   0.57410   0.01267  Uiso   1.00
C10    C     0.92260   0.77960   0.46760   0.01267  Uiso   1.00
C11    C     0.68170   0.85200   0.21680   0.01267  Uiso   1.00
C12    C     0.59760   0.79140   0.22180   0.01267  Uiso   1.00
C13    C     0.50950   0.82880   0.29460   0.01267  Uiso   1.00
C14    C     0.40290   0.78780   0.32730   0.01267  Uiso   1.00
C15    C     0.80230   0.85060   0.15560   0.01267  Uiso   1.00
C16    C     0.75980   0.66070   0.17070   0.01267  Uiso   1.00
C17    C     0.61920   0.70410   0.16880   0.01267  Uiso   1.00
C18    C     0.50590   0.64670   0.11230   0.01267  Uiso   1.00
C19    C     0.33360   0.66150   0.08740   0.01267  Uiso   1.00
C20    C     0.92260   0.68800   0.22040   0.01267  Uiso   1.00
C21    C     0.68170   0.36480   0.14800   0.01267  Uiso   1.00
C22    C     0.59760   0.43040   0.20860   0.01267  Uiso   1.00
C23    C     0.50950   0.46580   0.17120   0.01267  Uiso   1.00
C24    C     0.40290   0.53950   0.21220   0.01267  Uiso   1.00
C25    C     0.80230   0.30500   0.14940   0.01267  Uiso   1.00
C26    C     0.75980   0.51000   0.33930   0.01267  Uiso   1.00
C27    C     0.61920   0.46470   0.29590   0.01267  Uiso   1.00
C28    C     0.50590   0.46560   0.35330   0.01267  Uiso   1.00
C29    C     0.33360   0.42590   0.33850   0.01267  Uiso   1.00
C30    C     0.92260   0.53240   0.31200   0.01267  Uiso   1.00
C31    C     0.31830   0.14800   0.36480   0.01267  Uiso   1.00
C32    C     0.40240   0.20860   0.43040   0.01267  Uiso   1.00
C33    C     0.49050   0.17120   0.46580   0.01267  Uiso   1.00
C34    C     0.59710   0.21220   0.53950   0.01267  Uiso   1.00
C35    C     0.19770   0.14940   0.30500   0.01267  Uiso   1.00
C36    C     0.24020   0.33930   0.51000   0.01267  Uiso   1.00
C37    C     0.38080   0.29590   0.46470   0.01267  Uiso   1.00
C38    C     0.49410   0.35330   0.46560   0.01267  Uiso   1.00
C39    C     0.66640   0.33850   0.42590   0.01267  Uiso   1.00
C40    C     0.07740   0.31200   0.53240   0.01267  Uiso   1.00
C41    C     0.31830   0.63520   0.78320   0.01267  Uiso   1.00
C42    C     0.40240   0.56960   0.77820   0.01267  Uiso   1.00
C43    C     0.49050   0.53420   0.70540   0.01267  Uiso   1.00
C44    C     0.59710   0.46050   0.67270   0.01267  Uiso   1.00
C45    C     0.19770   0.69500   0.84440   0.01267  Uiso   1.00
C46    C     0.24020   0.49000   0.82930   0.01267  Uiso   1.00
C47    C     0.38080   0.53530   0.83120   0.01267  Uiso   1.00
C48    C     0.49410   0.53440   0.88770   0.01267  Uiso   1.00
C49    C     0.66640   0.57410   0.91260   0.01267  Uiso   1.00
C50    C     0.07740   0.46760   0.77960   0.01267  Uiso   1.00
C51    C     0.31830   0.21680   0.85200   0.01267  Uiso   1.00
C52    C     0.40240   0.22180   0.79140   0.01267  Uiso   1.00
C53    C     0.49050   0.29460   0.82880   0.01267  Uiso   1.00
C54    C     0.59710   0.32730   0.78780   0.01267  Uiso   1.00
C55    C     0.19770   0.15560   0.85060   0.01267  Uiso   1.00
C56    C     0.24020   0.17070   0.66070   0.01267  Uiso   1.00
C57    C     0.38080   0.16880   0.70410   0.01267  Uiso   1.00
C58    C     0.49410   0.11230   0.64670   0.01267  Uiso   1.00
C59    C     0.66640   0.08740   0.66150   0.01267  Uiso   1.00
C60    C     0.07740   0.22040   0.68800   0.01267  Uiso   1.00
N1     N     0.53530   0.66700   0.57560   0.01267  Uiso   1.00
N2     N     0.63850   0.71730   0.63820   0.01267  Uiso   1.00
N3     N     0.72900   0.88090   0.46540   0.01267  Uiso   1.00
N4     N     0.57250   0.91820   0.49180   0.01267  Uiso   1.00
N5     N     0.53530   0.90860   0.33300   0.01267  Uiso   1.00
N6     N     0.63850   0.92090   0.28270   0.01267  Uiso   1.00
N7     N     0.72900   0.58450   0.11910   0.01267  Uiso   1.00
N8     N     0.57250   0.57360   0.08180   0.01267  Uiso   1.00
N9     N     0.53530   0.42440   0.09140   0.01267  Uiso   1.00
N10    N     0.63850   0.36180   0.07910   0.01267  Uiso   1.00
N11    N     0.72900   0.53460   0.41550   0.01267  Uiso   1.00
N12    N     0.57250   0.50820   0.42640   0.01267  Uiso   1.00
N13    N     0.46470   0.09140   0.42440   0.01267  Uiso   1.00
N14    N     0.36150   0.07910   0.36180   0.01267  Uiso   1.00
N15    N     0.27100   0.41550   0.53460   0.01267  Uiso   1.00
N16    N     0.42750   0.42640   0.50820   0.01267  Uiso   1.00
N17    N     0.46470   0.57560   0.66700   0.01267  Uiso   1.00
N18    N     0.36150   0.63820   0.71730   0.01267  Uiso   1.00
N19    N     0.27100   0.46540   0.88090   0.01267  Uiso   1.00
N20    N     0.42750   0.49180   0.91820   0.01267  Uiso   1.00
N21    N     0.46470   0.33300   0.90860   0.01267  Uiso   1.00
N22    N     0.36150   0.28270   0.92090   0.01267  Uiso   1.00
N23    N     0.27100   0.11910   0.58450   0.01267  Uiso   1.00
N24    N     0.42750   0.08180   0.57360   0.01267  Uiso   1.00
