data_OHOFEW_clean
_audit_creation_date              2014-07-02
_audit_creation_method            'Materials Studio'
_symmetry_space_group_name_H-M    'P1'
_symmetry_Int_Tables_number       1
_symmetry_cell_setting            triclinic
loop_
_symmetry_equiv_pos_as_xyz
  x,y,z
_cell_length_a                    7.7651
_cell_length_b                    19.3293
_cell_length_c                    19.3293
_cell_angle_alpha                 120.0000
_cell_angle_beta                  90.0000
_cell_angle_gamma                 90.0000
loop_
_atom_site_label
_atom_site_type_symbol
_atom_site_fract_x
_atom_site_fract_y
_atom_site_fract_z
_atom_site_U_iso_or_equiv
_atom_site_adp_type
_atom_site_occupancy
Co1    Co    0.50000   0.45608   0.45608   0.01267  Uiso   1.00
Co2    Co    0.50000  -0.00000   0.54392   0.01267  Uiso   1.00
Co3    Co    0.50000   0.54392  -0.00000   0.01267  Uiso   1.00
H1     H     0.30510   0.29040   0.31280   0.01267  Uiso   1.00
H2     H     0.21050   0.10930   0.56110   0.01267  Uiso   1.00
H3     H     0.67850   0.36810   0.54410   0.01267  Uiso   1.00
H4     H     0.49090   0.34870   0.57370   0.01267  Uiso   1.00
H5     H     0.63130   0.29530   0.54980   0.01267  Uiso   1.00
H6     H     0.20260   0.11970   0.31470   0.01267  Uiso   1.00
H7     H     0.07000   0.17180   0.31830   0.01267  Uiso   1.00
H8     H     0.23000   0.15330   0.25230   0.01267  Uiso   1.00
H9     H     0.76000   0.08890   0.45740   0.01267  Uiso   1.00
H10    H     0.71180   0.13140   0.41030   0.01267  Uiso   1.00
H11    H     0.65940   0.04510   0.38260   0.01267  Uiso   1.00
H12    H     0.01240   0.21490   0.57270   0.01267  Uiso   1.00
H13    H     0.10210   0.26640   0.53770   0.01267  Uiso   1.00
H14    H     0.99070   0.20940   0.49630   0.01267  Uiso   1.00
H15    H     0.30510   0.02240   0.70960   0.01267  Uiso   1.00
H16    H     0.21050   0.45180   0.89070   0.01267  Uiso   1.00
H17    H     0.67850   0.17600   0.63190   0.01267  Uiso   1.00
H18    H     0.49090   0.22500   0.65130   0.01267  Uiso   1.00
H19    H     0.63130   0.25450   0.70470   0.01267  Uiso   1.00
H20    H     0.20260   0.19500   0.88030   0.01267  Uiso   1.00
H21    H     0.07000   0.14650   0.82820   0.01267  Uiso   1.00
H22    H     0.23000   0.09900   0.84670   0.01267  Uiso   1.00
H23    H     0.76000   0.36850   0.91110   0.01267  Uiso   1.00
H24    H     0.71180   0.27890   0.86860   0.01267  Uiso   1.00
H25    H     0.65940   0.33750   0.95490   0.01267  Uiso   1.00
H26    H     0.01240   0.35780   0.78510   0.01267  Uiso   1.00
H27    H     0.10210   0.27130   0.73360   0.01267  Uiso   1.00
H28    H     0.99070   0.28690   0.79060   0.01267  Uiso   1.00
H29    H     0.30510   0.68720   0.97760   0.01267  Uiso   1.00
H30    H     0.21050   0.43890   0.54820   0.01267  Uiso   1.00
H31    H     0.67850   0.45590   0.82400   0.01267  Uiso   1.00
H32    H     0.49090   0.42630   0.77500   0.01267  Uiso   1.00
H33    H     0.63130   0.45020   0.74550   0.01267  Uiso   1.00
H34    H     0.20260   0.68530   0.80500   0.01267  Uiso   1.00
H35    H     0.07000   0.68170   0.85350   0.01267  Uiso   1.00
H36    H     0.23000   0.74770   0.90100   0.01267  Uiso   1.00
H37    H     0.76000   0.54260   0.63150   0.01267  Uiso   1.00
H38    H     0.71180   0.58970   0.72110   0.01267  Uiso   1.00
H39    H     0.65940   0.61740   0.66250   0.01267  Uiso   1.00
H40    H     0.01240   0.42730   0.64220   0.01267  Uiso   1.00
H41    H     0.10210   0.46230   0.72870   0.01267  Uiso   1.00
H42    H     0.99070   0.50370   0.71310   0.01267  Uiso   1.00
H43    H     0.69490   0.97760   0.68720   0.01267  Uiso   1.00
H44    H     0.78950   0.54820   0.43890   0.01267  Uiso   1.00
H45    H     0.32150   0.82400   0.45590   0.01267  Uiso   1.00
H46    H     0.50910   0.77500   0.42630   0.01267  Uiso   1.00
H47    H     0.36870   0.74550   0.45020   0.01267  Uiso   1.00
H48    H     0.79740   0.80500   0.68530   0.01267  Uiso   1.00
H49    H     0.93000   0.85350   0.68170   0.01267  Uiso   1.00
H50    H     0.77000   0.90100   0.74770   0.01267  Uiso   1.00
H51    H     0.24000   0.63150   0.54260   0.01267  Uiso   1.00
H52    H     0.28820   0.72110   0.58970   0.01267  Uiso   1.00
H53    H     0.34060   0.66250   0.61740   0.01267  Uiso   1.00
H54    H     0.98760   0.64220   0.42730   0.01267  Uiso   1.00
H55    H     0.89790   0.72870   0.46230   0.01267  Uiso   1.00
H56    H     0.00930   0.71310   0.50370   0.01267  Uiso   1.00
H57    H     0.69490   0.31280   0.29040   0.01267  Uiso   1.00
H58    H     0.78950   0.56110   0.10930   0.01267  Uiso   1.00
H59    H     0.32150   0.54410   0.36810   0.01267  Uiso   1.00
H60    H     0.50910   0.57370   0.34870   0.01267  Uiso   1.00
H61    H     0.36870   0.54980   0.29530   0.01267  Uiso   1.00
H62    H     0.79740   0.31470   0.11970   0.01267  Uiso   1.00
H63    H     0.93000   0.31830   0.17180   0.01267  Uiso   1.00
H64    H     0.77000   0.25230   0.15330   0.01267  Uiso   1.00
H65    H     0.24000   0.45740   0.08890   0.01267  Uiso   1.00
H66    H     0.28820   0.41030   0.13140   0.01267  Uiso   1.00
H67    H     0.34060   0.38260   0.04510   0.01267  Uiso   1.00
H68    H     0.98760   0.57270   0.21490   0.01267  Uiso   1.00
H69    H     0.89790   0.53770   0.26640   0.01267  Uiso   1.00
H70    H     0.00930   0.49630   0.20940   0.01267  Uiso   1.00
H71    H     0.69490   0.70960   0.02240   0.01267  Uiso   1.00
H72    H     0.78950   0.89070   0.45180   0.01267  Uiso   1.00
H73    H     0.32150   0.63190   0.17600   0.01267  Uiso   1.00
H74    H     0.50910   0.65130   0.22500   0.01267  Uiso   1.00
H75    H     0.36870   0.70470   0.25450   0.01267  Uiso   1.00
H76    H     0.79740   0.88030   0.19500   0.01267  Uiso   1.00
H77    H     0.93000   0.82820   0.14650   0.01267  Uiso   1.00
H78    H     0.77000   0.84670   0.09900   0.01267  Uiso   1.00
H79    H     0.24000   0.91110   0.36850   0.01267  Uiso   1.00
H80    H     0.28820   0.86860   0.27890   0.01267  Uiso   1.00
H81    H     0.34060   0.95490   0.33750   0.01267  Uiso   1.00
H82    H     0.98760   0.78510   0.35780   0.01267  Uiso   1.00
H83    H     0.89790   0.73360   0.27130   0.01267  Uiso   1.00
H84    H     0.00930   0.79060   0.28690   0.01267  Uiso   1.00
C1     C     0.32010   0.21870   0.36550   0.01267  Uiso   1.00
C2     C     0.40180   0.22380   0.43130   0.01267  Uiso   1.00
C3     C     0.49160   0.29630   0.46700   0.01267  Uiso   1.00
C4     C     0.60030   0.32970   0.54060   0.01267  Uiso   1.00
C5     C     0.19690   0.15900   0.30680   0.01267  Uiso   1.00
C6     C     0.24200   0.17210   0.50920   0.01267  Uiso   1.00
C7     C     0.38130   0.16990   0.46490   0.01267  Uiso   1.00
C8     C     0.49450   0.11350   0.46410   0.01267  Uiso   1.00
C9     C     0.66700   0.08800   0.42540   0.01267  Uiso   1.00
C10    C     0.08170   0.22090   0.53230   0.01267  Uiso   1.00
C11    C     0.32010   0.14680   0.78130   0.01267  Uiso   1.00
C12    C     0.40180   0.20750   0.77620   0.01267  Uiso   1.00
C13    C     0.49160   0.17070   0.70370   0.01267  Uiso   1.00
C14    C     0.60030   0.21090   0.67030   0.01267  Uiso   1.00
C15    C     0.19690   0.14780   0.84100   0.01267  Uiso   1.00
C16    C     0.24200   0.33710   0.82790   0.01267  Uiso   1.00
C17    C     0.38130   0.29500   0.83010   0.01267  Uiso   1.00
C18    C     0.49450   0.35060   0.88650   0.01267  Uiso   1.00
C19    C     0.66700   0.33740   0.91200   0.01267  Uiso   1.00
C20    C     0.08170   0.31140   0.77910   0.01267  Uiso   1.00
C21    C     0.32010   0.63450   0.85320   0.01267  Uiso   1.00
C22    C     0.40180   0.56870   0.79250   0.01267  Uiso   1.00
C23    C     0.49160   0.53300   0.82930   0.01267  Uiso   1.00
C24    C     0.60030   0.45940   0.78910   0.01267  Uiso   1.00
C25    C     0.19690   0.69320   0.85220   0.01267  Uiso   1.00
C26    C     0.24200   0.49080   0.66290   0.01267  Uiso   1.00
C27    C     0.38130   0.53510   0.70500   0.01267  Uiso   1.00
C28    C     0.49450   0.53590   0.64940   0.01267  Uiso   1.00
C29    C     0.66700   0.57460   0.66260   0.01267  Uiso   1.00
C30    C     0.08170   0.46770   0.68860   0.01267  Uiso   1.00
C31    C     0.67990   0.85320   0.63450   0.01267  Uiso   1.00
C32    C     0.59820   0.79250   0.56870   0.01267  Uiso   1.00
C33    C     0.50840   0.82930   0.53300   0.01267  Uiso   1.00
C34    C     0.39970   0.78910   0.45940   0.01267  Uiso   1.00
C35    C     0.80310   0.85220   0.69320   0.01267  Uiso   1.00
C36    C     0.75800   0.66290   0.49080   0.01267  Uiso   1.00
C37    C     0.61870   0.70500   0.53510   0.01267  Uiso   1.00
C38    C     0.50550   0.64940   0.53590   0.01267  Uiso   1.00
C39    C     0.33300   0.66260   0.57460   0.01267  Uiso   1.00
C40    C     0.91830   0.68860   0.46770   0.01267  Uiso   1.00
C41    C     0.67990   0.36550   0.21870   0.01267  Uiso   1.00
C42    C     0.59820   0.43130   0.22380   0.01267  Uiso   1.00
C43    C     0.50840   0.46700   0.29630   0.01267  Uiso   1.00
C44    C     0.39970   0.54060   0.32970   0.01267  Uiso   1.00
C45    C     0.80310   0.30680   0.15900   0.01267  Uiso   1.00
C46    C     0.75800   0.50920   0.17210   0.01267  Uiso   1.00
C47    C     0.61870   0.46490   0.16990   0.01267  Uiso   1.00
C48    C     0.50550   0.46410   0.11350   0.01267  Uiso   1.00
C49    C     0.33300   0.42540   0.08800   0.01267  Uiso   1.00
C50    C     0.91830   0.53230   0.22090   0.01267  Uiso   1.00
C51    C     0.67990   0.78130   0.14680   0.01267  Uiso   1.00
C52    C     0.59820   0.77620   0.20750   0.01267  Uiso   1.00
C53    C     0.50840   0.70370   0.17070   0.01267  Uiso   1.00
C54    C     0.39970   0.67030   0.21090   0.01267  Uiso   1.00
C55    C     0.80310   0.84100   0.14780   0.01267  Uiso   1.00
C56    C     0.75800   0.82790   0.33710   0.01267  Uiso   1.00
C57    C     0.61870   0.83010   0.29500   0.01267  Uiso   1.00
C58    C     0.50550   0.88650   0.35060   0.01267  Uiso   1.00
C59    C     0.33300   0.91200   0.33740   0.01267  Uiso   1.00
C60    C     0.91830   0.77910   0.31140   0.01267  Uiso   1.00
N1     N     0.46440   0.33570   0.42670   0.01267  Uiso   1.00
N2     N     0.36200   0.28540   0.36340   0.01267  Uiso   1.00
N3     N     0.27320   0.11940   0.53380   0.01267  Uiso   1.00
N4     N     0.42730   0.08170   0.50740   0.01267  Uiso   1.00
N5     N     0.46440   0.09100   0.66430   0.01267  Uiso   1.00
N6     N     0.36200   0.07800   0.71460   0.01267  Uiso   1.00
N7     N     0.27320   0.41440   0.88060   0.01267  Uiso   1.00
N8     N     0.42730   0.42570   0.91830   0.01267  Uiso   1.00
N9     N     0.46440   0.57330   0.90900   0.01267  Uiso   1.00
N10    N     0.36200   0.63660   0.92200   0.01267  Uiso   1.00
N11    N     0.27320   0.46620   0.58560   0.01267  Uiso   1.00
N12    N     0.42730   0.49260   0.57430   0.01267  Uiso   1.00
N13    N     0.53560   0.90900   0.57330   0.01267  Uiso   1.00
N14    N     0.63800   0.92200   0.63660   0.01267  Uiso   1.00
N15    N     0.72680   0.58560   0.46620   0.01267  Uiso   1.00
N16    N     0.57270   0.57430   0.49260   0.01267  Uiso   1.00
N17    N     0.53560   0.42670   0.33570   0.01267  Uiso   1.00
N18    N     0.63800   0.36340   0.28540   0.01267  Uiso   1.00
N19    N     0.72680   0.53380   0.11940   0.01267  Uiso   1.00
N20    N     0.57270   0.50740   0.08170   0.01267  Uiso   1.00
N21    N     0.53560   0.66430   0.09100   0.01267  Uiso   1.00
N22    N     0.63800   0.71460   0.07800   0.01267  Uiso   1.00
N23    N     0.72680   0.88060   0.41440   0.01267  Uiso   1.00
N24    N     0.57270   0.91830   0.42570   0.01267  Uiso   1.00
