data_OHOLIH_clean
_audit_creation_date              2014-07-02
_audit_creation_method            'Materials Studio'
_symmetry_space_group_name_H-M    'P1'
_symmetry_Int_Tables_number       1
_symmetry_cell_setting            triclinic
loop_
_symmetry_equiv_pos_as_xyz
  x,y,z
_cell_length_a                    10.6730
_cell_length_b                    12.1006
_cell_length_c                    12.1006
_cell_angle_alpha                 96.1065
_cell_angle_beta                  104.5710
_cell_angle_gamma                 75.4292
loop_
_atom_site_label
_atom_site_type_symbol
_atom_site_fract_x
_atom_site_fract_y
_atom_site_fract_z
_atom_site_U_iso_or_equiv
_atom_site_adp_type
_atom_site_occupancy
Zn1    Zn    0.25000   0.11388   0.11388   0.01267  Uiso   1.00
Zn2    Zn    0.75000   0.88612   0.88612   0.01267  Uiso   1.00
Zn3    Zn    0.00000   0.00000   0.00000   0.01267  Uiso   1.00
Zn4    Zn    0.50000  -0.00000  -0.00000   0.01267  Uiso   1.00
H1     H     0.91080   0.18460   0.81520   0.01267  Uiso   1.00
H2     H     0.77360   0.21200   0.63980   0.01267  Uiso   1.00
H3     H     0.23220   0.09270   0.67810   0.01267  Uiso   1.00
H4     H     0.19820   0.09910   0.46530   0.01267  Uiso   1.00
H5     H     0.82710   0.15710   0.26850   0.01267  Uiso   1.00
H6     H     0.73790   0.19870   0.42690   0.01267  Uiso   1.00
H7     H     0.58920   0.81520   0.18460   0.01267  Uiso   1.00
H8     H     0.72640   0.63980   0.21200   0.01267  Uiso   1.00
H9     H     0.26780   0.67810   0.09270   0.01267  Uiso   1.00
H10    H     0.30180   0.46530   0.09910   0.01267  Uiso   1.00
H11    H     0.67290   0.26850   0.15710   0.01267  Uiso   1.00
H12    H     0.76210   0.42690   0.19870   0.01267  Uiso   1.00
H13    H     0.08920   0.81540   0.18480   0.01267  Uiso   1.00
H14    H     0.22640   0.78800   0.36020   0.01267  Uiso   1.00
H15    H     0.76780   0.90730   0.32190   0.01267  Uiso   1.00
H16    H     0.80180   0.90090   0.53470   0.01267  Uiso   1.00
H17    H     0.17290   0.84290   0.73150   0.01267  Uiso   1.00
H18    H     0.26210   0.80130   0.57310   0.01267  Uiso   1.00
H19    H     0.41080   0.18480   0.81540   0.01267  Uiso   1.00
H20    H     0.27360   0.36020   0.78800   0.01267  Uiso   1.00
H21    H     0.73220   0.32190   0.90730   0.01267  Uiso   1.00
H22    H     0.69820   0.53470   0.90090   0.01267  Uiso   1.00
H23    H     0.32710   0.73150   0.84290   0.01267  Uiso   1.00
H24    H     0.23790   0.57310   0.80130   0.01267  Uiso   1.00
C1     C     0.17940   0.10390   0.87950   0.01267  Uiso   1.00
C2     C     0.08870   0.13150   0.76370   0.01267  Uiso   1.00
C3     C     0.94670   0.17070   0.75030   0.01267  Uiso   1.00
C4     C     0.86600   0.18760   0.64680   0.01267  Uiso   1.00
C5     C     0.91710   0.16960   0.54700   0.01267  Uiso   1.00
C6     C     0.05510   0.13640   0.55800   0.01267  Uiso   1.00
C7     C     0.13950   0.11650   0.66970   0.01267  Uiso   1.00
C8     C     0.10570   0.11950   0.45830   0.01267  Uiso   1.00
C9     C     0.07290   0.11200   0.24540   0.01267  Uiso   1.00
C10    C     0.02300   0.13200   0.35320   0.01267  Uiso   1.00
C11    C     0.88400   0.15610   0.34190   0.01267  Uiso   1.00
C12    C     0.83070   0.17810   0.43570   0.01267  Uiso   1.00
C13    C     0.32060   0.87950   0.10390   0.01267  Uiso   1.00
C14    C     0.41130   0.76370   0.13150   0.01267  Uiso   1.00
C15    C     0.55330   0.75030   0.17070   0.01267  Uiso   1.00
C16    C     0.63400   0.64680   0.18760   0.01267  Uiso   1.00
C17    C     0.58290   0.54700   0.16960   0.01267  Uiso   1.00
C18    C     0.44490   0.55800   0.13640   0.01267  Uiso   1.00
C19    C     0.36050   0.66970   0.11650   0.01267  Uiso   1.00
C20    C     0.39430   0.45830   0.11950   0.01267  Uiso   1.00
C21    C     0.42710   0.24540   0.11200   0.01267  Uiso   1.00
C22    C     0.47700   0.35320   0.13200   0.01267  Uiso   1.00
C23    C     0.61600   0.34190   0.15610   0.01267  Uiso   1.00
C24    C     0.66930   0.43570   0.17810   0.01267  Uiso   1.00
C25    C     0.82060   0.89610   0.12050   0.01267  Uiso   1.00
C26    C     0.91130   0.86850   0.23630   0.01267  Uiso   1.00
C27    C     0.05330   0.82930   0.24970   0.01267  Uiso   1.00
C28    C     0.13400   0.81240   0.35320   0.01267  Uiso   1.00
C29    C     0.08290   0.83040   0.45300   0.01267  Uiso   1.00
C30    C     0.94490   0.86360   0.44200   0.01267  Uiso   1.00
C31    C     0.86050   0.88350   0.33030   0.01267  Uiso   1.00
C32    C     0.89430   0.88050   0.54170   0.01267  Uiso   1.00
C33    C     0.92710   0.88800   0.75460   0.01267  Uiso   1.00
C34    C     0.97700   0.86800   0.64680   0.01267  Uiso   1.00
C35    C     0.11600   0.84390   0.65810   0.01267  Uiso   1.00
C36    C     0.16930   0.82190   0.56430   0.01267  Uiso   1.00
C37    C     0.67940   0.12050   0.89610   0.01267  Uiso   1.00
C38    C     0.58870   0.23630   0.86850   0.01267  Uiso   1.00
C39    C     0.44670   0.24970   0.82930   0.01267  Uiso   1.00
C40    C     0.36600   0.35320   0.81240   0.01267  Uiso   1.00
C41    C     0.41710   0.45300   0.83040   0.01267  Uiso   1.00
C42    C     0.55510   0.44200   0.86360   0.01267  Uiso   1.00
C43    C     0.63950   0.33030   0.88350   0.01267  Uiso   1.00
C44    C     0.60570   0.54170   0.88050   0.01267  Uiso   1.00
C45    C     0.57290   0.75460   0.88800   0.01267  Uiso   1.00
C46    C     0.52300   0.64680   0.86800   0.01267  Uiso   1.00
C47    C     0.38400   0.65810   0.84390   0.01267  Uiso   1.00
C48    C     0.33070   0.56430   0.82190   0.01267  Uiso   1.00
O1     O     0.12030   0.11610   0.96350   0.01267  Uiso   1.00
O2     O     0.18780   0.12100   0.25420   0.01267  Uiso   1.00
O3     O     0.99240   0.09040   0.15300   0.01267  Uiso   1.00
O4     O     0.30070   0.07490   0.89010   0.01267  Uiso   1.00
O5     O     0.37970   0.96350   0.11610   0.01267  Uiso   1.00
O6     O     0.31220   0.25420   0.12100   0.01267  Uiso   1.00
O7     O     0.50760   0.15300   0.09040   0.01267  Uiso   1.00
O8     O     0.19930   0.89010   0.07490   0.01267  Uiso   1.00
O9     O     0.87970   0.88390   0.03650   0.01267  Uiso   1.00
O10    O     0.81220   0.87900   0.74580   0.01267  Uiso   1.00
O11    O     0.00760   0.90960   0.84700   0.01267  Uiso   1.00
O12    O     0.69930   0.92510   0.10990   0.01267  Uiso   1.00
O13    O     0.62030   0.03650   0.88390   0.01267  Uiso   1.00
O14    O     0.68780   0.74580   0.87900   0.01267  Uiso   1.00
O15    O     0.49240   0.84700   0.90960   0.01267  Uiso   1.00
O16    O     0.80070   0.10990   0.92510   0.01267  Uiso   1.00
