data_OPIPOT_clean
_audit_creation_date              2014-07-02
_audit_creation_method            'Materials Studio'
_symmetry_space_group_name_H-M    'P1'
_symmetry_Int_Tables_number       1
_symmetry_cell_setting            triclinic
loop_
_symmetry_equiv_pos_as_xyz
  x,y,z
_cell_length_a                    6.5597
_cell_length_b                    7.9129
_cell_length_c                    25.4447
_cell_angle_alpha                 90.0000
_cell_angle_beta                  90.0000
_cell_angle_gamma                 91.9500
loop_
_atom_site_label
_atom_site_type_symbol
_atom_site_fract_x
_atom_site_fract_y
_atom_site_fract_z
_atom_site_U_iso_or_equiv
_atom_site_adp_type
_atom_site_occupancy
Co1    Co    0.37461   0.28768   0.48733   0.01267  Uiso   1.00
Co2    Co    0.87119   0.79914   0.55607   0.01267  Uiso   1.00
Co3    Co    0.62539   0.71232   0.98733   0.01267  Uiso   1.00
Co4    Co    0.12881   0.20086   0.05607   0.01267  Uiso   1.00
H1     H     0.37700   0.17330   0.63080   0.01267  Uiso   1.00
H2     H     0.60320   0.21150   0.56680   0.01267  Uiso   1.00
H3     H     0.54350   0.39080   0.57460   0.01267  Uiso   1.00
H4     H     0.28940   0.44910   0.63750   0.01267  Uiso   1.00
H5     H     0.07970   0.34320   0.63100   0.01267  Uiso   1.00
H6     H     0.87510   0.95390   0.41680   0.01267  Uiso   1.00
H7     H     0.09910   0.90340   0.47860   0.01267  Uiso   1.00
H8     H     0.03090   0.72550   0.46610   0.01267  Uiso   1.00
H9     H     0.75780   0.68460   0.40010   0.01267  Uiso   1.00
H10    H     0.55940   0.78820   0.41280   0.01267  Uiso   1.00
H11    H     0.94950   0.36650   0.44620   0.01267  Uiso   1.00
H12    H     0.74750   0.35220   0.37160   0.01267  Uiso   1.00
H13    H     0.19030   0.08990   0.30080   0.01267  Uiso   1.00
H14    H     0.38320   0.11700   0.37730   0.01267  Uiso   1.00
H15    H     0.88250   0.13820   0.25030   0.01267  Uiso   1.00
H16    H     0.60770   0.35800   0.29330   0.01267  Uiso   1.00
H17    H     0.09130   0.33710   0.17080   0.01267  Uiso   1.00
H18    H     0.28960   0.38450   0.24460   0.01267  Uiso   1.00
H19    H     0.75420   0.16040   0.17090   0.01267  Uiso   1.00
H20    H     0.55060   0.13640   0.09760   0.01267  Uiso   1.00
H21    H     0.62300   0.82670   0.13080   0.01267  Uiso   1.00
H22    H     0.39680   0.78850   0.06680   0.01267  Uiso   1.00
H23    H     0.45650   0.60920   0.07460   0.01267  Uiso   1.00
H24    H     0.71060   0.55090   0.13750   0.01267  Uiso   1.00
H25    H     0.92030   0.65680   0.13100   0.01267  Uiso   1.00
H26    H     0.12490   0.04610   0.91680   0.01267  Uiso   1.00
H27    H     0.90090   0.09660   0.97860   0.01267  Uiso   1.00
H28    H     0.96910   0.27450   0.96610   0.01267  Uiso   1.00
H29    H     0.24220   0.31540   0.90010   0.01267  Uiso   1.00
H30    H     0.44060   0.21180   0.91280   0.01267  Uiso   1.00
H31    H     0.05050   0.63350   0.94620   0.01267  Uiso   1.00
H32    H     0.25250   0.64780   0.87160   0.01267  Uiso   1.00
H33    H     0.80970   0.91010   0.80080   0.01267  Uiso   1.00
H34    H     0.61680   0.88300   0.87730   0.01267  Uiso   1.00
H35    H     0.11750   0.86180   0.75030   0.01267  Uiso   1.00
H36    H     0.39230   0.64200   0.79330   0.01267  Uiso   1.00
H37    H     0.90870   0.66290   0.67080   0.01267  Uiso   1.00
H38    H     0.71040   0.61550   0.74460   0.01267  Uiso   1.00
H39    H     0.24580   0.83960   0.67090   0.01267  Uiso   1.00
H40    H     0.44940   0.86360   0.59760   0.01267  Uiso   1.00
C1     C     0.18520   0.09560   0.56981   0.01267  Uiso   1.00
C2     C     0.32310   0.22510   0.59802   0.01267  Uiso   1.00
C3     C     0.20570   0.38100   0.61239   0.01267  Uiso   1.00
C4     C     0.14480   0.49810   0.56664   0.01267  Uiso   1.00
C5     C     0.68700   0.00900   0.47973   0.01267  Uiso   1.00
C6     C     0.81870   0.89090   0.44792   0.01267  Uiso   1.00
C7     C     0.68400   0.74230   0.42853   0.01267  Uiso   1.00
C8     C     0.61790   0.60860   0.46973   0.01267  Uiso   1.00
C9     C     0.00130   0.31410   0.41562   0.01267  Uiso   1.00
C10    C     0.87800   0.30370   0.37149   0.01267  Uiso   1.00
C11    C     0.94770   0.22100   0.32666   0.01267  Uiso   1.00
C12    C     0.13860   0.15030   0.32987   0.01267  Uiso   1.00
C13    C     0.25430   0.16800   0.37569   0.01267  Uiso   1.00
C14    C     0.83050   0.20840   0.27708   0.01267  Uiso   1.00
C15    C     0.65890   0.28650   0.26672   0.01267  Uiso   1.00
C16    C     0.22920   0.30410   0.17045   0.01267  Uiso   1.00
C17    C     0.34530   0.32830   0.21519   0.01267  Uiso   1.00
C18    C     0.54180   0.27160   0.21758   0.01267  Uiso   1.00
C19    C     0.61880   0.19930   0.17187   0.01267  Uiso   1.00
C20    C     0.49560   0.18530   0.12835   0.01267  Uiso   1.00
C21    C     0.81480   0.90440   0.06981   0.01267  Uiso   1.00
C22    C     0.67690   0.77490   0.09802   0.01267  Uiso   1.00
C23    C     0.79430   0.61900   0.11239   0.01267  Uiso   1.00
C24    C     0.85520   0.50190   0.06664   0.01267  Uiso   1.00
C25    C     0.31300   0.99100   0.97973   0.01267  Uiso   1.00
C26    C     0.18130   0.10910   0.94792   0.01267  Uiso   1.00
C27    C     0.31600   0.25770   0.92853   0.01267  Uiso   1.00
C28    C     0.38210   0.39140   0.96973   0.01267  Uiso   1.00
C29    C     0.99870   0.68590   0.91562   0.01267  Uiso   1.00
C30    C     0.12200   0.69630   0.87149   0.01267  Uiso   1.00
C31    C     0.05230   0.77900   0.82666   0.01267  Uiso   1.00
C32    C     0.86140   0.84970   0.82987   0.01267  Uiso   1.00
C33    C     0.74570   0.83200   0.87569   0.01267  Uiso   1.00
C34    C     0.16950   0.79160   0.77708   0.01267  Uiso   1.00
C35    C     0.34110   0.71350   0.76672   0.01267  Uiso   1.00
C36    C     0.77080   0.69590   0.67045   0.01267  Uiso   1.00
C37    C     0.65470   0.67170   0.71519   0.01267  Uiso   1.00
C38    C     0.45820   0.72840   0.71758   0.01267  Uiso   1.00
C39    C     0.38120   0.80070   0.67187   0.01267  Uiso   1.00
C40    C     0.50440   0.81470   0.62835   0.01267  Uiso   1.00
N1     N     0.49730   0.28450   0.56462   0.01267  Uiso   1.00
N2     N     0.98980   0.82740   0.47907   0.01267  Uiso   1.00
N3     N     0.19020   0.25420   0.41752   0.01267  Uiso   1.00
N4     N     0.30340   0.23580   0.12645   0.01267  Uiso   1.00
N5     N     0.50270   0.71550   0.06462   0.01267  Uiso   1.00
N6     N     0.01020   0.17260   0.97907   0.01267  Uiso   1.00
N7     N     0.80980   0.74580   0.91752   0.01267  Uiso   1.00
N8     N     0.69660   0.76420   0.62645   0.01267  Uiso   1.00
O1     O     0.20730   0.09310   0.52019   0.01267  Uiso   1.00
O2     O     0.06300   0.99950   0.59572   0.01267  Uiso   1.00
O3     O     0.16680   0.46350   0.51990   0.01267  Uiso   1.00
O4     O     0.05630   0.62410   0.58493   0.01267  Uiso   1.00
O5     O     0.70040   0.99570   0.53002   0.01267  Uiso   1.00
O6     O     0.57980   0.11070   0.45658   0.01267  Uiso   1.00
O7     O     0.65630   0.62660   0.51721   0.01267  Uiso   1.00
O8     O     0.52540   0.48280   0.45008   0.01267  Uiso   1.00
O9     O     0.79270   0.90690   0.02019   0.01267  Uiso   1.00
O10    O     0.93700   0.00050   0.09572   0.01267  Uiso   1.00
O11    O     0.83320   0.53650   0.01990   0.01267  Uiso   1.00
O12    O     0.94370   0.37590   0.08493   0.01267  Uiso   1.00
O13    O     0.29960   0.00430   0.03002   0.01267  Uiso   1.00
O14    O     0.42020   0.88930   0.95658   0.01267  Uiso   1.00
O15    O     0.34370   0.37340   0.01721   0.01267  Uiso   1.00
O16    O     0.47460   0.51720   0.95008   0.01267  Uiso   1.00
