data_OVADAR_clean
_audit_creation_date              2014-07-02
_audit_creation_method            'Materials Studio'
_symmetry_space_group_name_H-M    'P1'
_symmetry_Int_Tables_number       1
_symmetry_cell_setting            triclinic
loop_
_symmetry_equiv_pos_as_xyz
  x,y,z
_cell_length_a                    8.8749
_cell_length_b                    9.6418
_cell_length_c                    17.1186
_cell_angle_alpha                 95.0835
_cell_angle_beta                  90.0000
_cell_angle_gamma                 117.4020
loop_
_atom_site_label
_atom_site_type_symbol
_atom_site_fract_x
_atom_site_fract_y
_atom_site_fract_z
_atom_site_U_iso_or_equiv
_atom_site_adp_type
_atom_site_occupancy
Li1    Li    0.36160   1.00000   0.75000   0.01267  Uiso   1.00
Li2    Li    0.63840   0.00000   0.25000   0.01267  Uiso   1.00
Mg1    Mg    0.49107   0.13822   0.93420   0.01267  Uiso   1.00
Mg2    Mg    0.35285   0.86178   0.56580   0.01267  Uiso   1.00
Mg3    Mg    0.50893   0.86178   0.06580   0.01267  Uiso   1.00
Mg4    Mg    0.64715   0.13822   0.43420   0.01267  Uiso   1.00
H1     H     0.52950   0.53020   0.52470   0.01267  Uiso   1.00
H2     H     0.49740   0.82500   0.72540   0.01267  Uiso   1.00
H3     H     0.43870   0.38600   0.69030   0.01267  Uiso   1.00
H4     H     0.41640   0.56660   0.90730   0.01267  Uiso   1.00
H5     H     0.99930   0.46980   0.97530   0.01267  Uiso   1.00
H6     H     0.67240   0.17500   0.77460   0.01267  Uiso   1.00
H7     H     0.05270   0.61400   0.80970   0.01267  Uiso   1.00
H8     H     0.84980   0.43340   0.59270   0.01267  Uiso   1.00
H9     H     0.47050   0.46980   0.47530   0.01267  Uiso   1.00
H10    H     0.50260   0.17500   0.27460   0.01267  Uiso   1.00
H11    H     0.56130   0.61400   0.30970   0.01267  Uiso   1.00
H12    H     0.58360   0.43340   0.09270   0.01267  Uiso   1.00
H13    H     0.00070   0.53020   0.02470   0.01267  Uiso   1.00
H14    H     0.32760   0.82500   0.22540   0.01267  Uiso   1.00
H15    H     0.94730   0.38600   0.19030   0.01267  Uiso   1.00
H16    H     0.15020   0.56660   0.40730   0.01267  Uiso   1.00
C1     C     0.46788   0.85196   0.87824   0.01267  Uiso   1.00
C2     C     0.45682   0.71664   0.82453   0.01267  Uiso   1.00
C3     C     0.47866   0.73172   0.74494   0.01267  Uiso   1.00
C4     C     0.47259   0.60838   0.69434   0.01267  Uiso   1.00
C5     C     0.49379   0.62398   0.60833   0.01267  Uiso   1.00
C6     C     0.44429   0.46938   0.72410   0.01267  Uiso   1.00
C7     C     0.42430   0.45360   0.80319   0.01267  Uiso   1.00
C8     C     0.41115   0.30650   0.83310   0.01267  Uiso   1.00
C9     C     0.43021   0.57702   0.85394   0.01267  Uiso   1.00
C10    C     0.61592   0.14804   0.62176   0.01267  Uiso   1.00
C11    C     0.74018   0.28336   0.67547   0.01267  Uiso   1.00
C12    C     0.74694   0.26828   0.75506   0.01267  Uiso   1.00
C13    C     0.86421   0.39162   0.80566   0.01267  Uiso   1.00
C14    C     0.86981   0.37602   0.89167   0.01267  Uiso   1.00
C15    C     0.97491   0.53062   0.77590   0.01267  Uiso   1.00
C16    C     0.97070   0.54640   0.69681   0.01267  Uiso   1.00
C17    C     0.10465   0.69350   0.66690   0.01267  Uiso   1.00
C18    C     0.85319   0.42298   0.64606   0.01267  Uiso   1.00
C19    C     0.53212   0.14804   0.12176   0.01267  Uiso   1.00
C20    C     0.54318   0.28336   0.17547   0.01267  Uiso   1.00
C21    C     0.52134   0.26828   0.25506   0.01267  Uiso   1.00
C22    C     0.52741   0.39162   0.30566   0.01267  Uiso   1.00
C23    C     0.50621   0.37602   0.39167   0.01267  Uiso   1.00
C24    C     0.55571   0.53062   0.27590   0.01267  Uiso   1.00
C25    C     0.57570   0.54640   0.19681   0.01267  Uiso   1.00
C26    C     0.58885   0.69350   0.16690   0.01267  Uiso   1.00
C27    C     0.56979   0.42298   0.14606   0.01267  Uiso   1.00
C28    C     0.38408   0.85196   0.37824   0.01267  Uiso   1.00
C29    C     0.25982   0.71664   0.32453   0.01267  Uiso   1.00
C30    C     0.25306   0.73172   0.24494   0.01267  Uiso   1.00
C31    C     0.13579   0.60838   0.19434   0.01267  Uiso   1.00
C32    C     0.13019   0.62398   0.10833   0.01267  Uiso   1.00
C33    C     0.02509   0.46938   0.22410   0.01267  Uiso   1.00
C34    C     0.02930   0.45360   0.30319   0.01267  Uiso   1.00
C35    C     0.89535   0.30650   0.33310   0.01267  Uiso   1.00
C36    C     0.14681   0.57702   0.35394   0.01267  Uiso   1.00
O1     O     0.47777   0.84834   0.95054   0.01267  Uiso   1.00
O2     O     0.47107   0.96854   0.84815   0.01267  Uiso   1.00
O3     O     0.48631   0.73322   0.57832   0.01267  Uiso   1.00
O4     O     0.51892   0.51604   0.57131   0.01267  Uiso   1.00
O5     O     0.35821   0.18582   0.78530   0.01267  Uiso   1.00
O6     O     0.46165   0.31690   0.90253   0.01267  Uiso   1.00
O7     O     0.62943   0.15166   0.54946   0.01267  Uiso   1.00
O8     O     0.50253   0.03146   0.65185   0.01267  Uiso   1.00
O9     O     0.75309   0.26678   0.92168   0.01267  Uiso   1.00
O10    O     0.00288   0.48396   0.92869   0.01267  Uiso   1.00
O11    O     0.17239   0.81418   0.71470   0.01267  Uiso   1.00
O12    O     0.14475   0.68310   0.59747   0.01267  Uiso   1.00
O13    O     0.52223   0.15166   0.04946   0.01267  Uiso   1.00
O14    O     0.52893   0.03146   0.15185   0.01267  Uiso   1.00
O15    O     0.51369   0.26678   0.42168   0.01267  Uiso   1.00
O16    O     0.48108   0.48396   0.42869   0.01267  Uiso   1.00
O17    O     0.64179   0.81418   0.21470   0.01267  Uiso   1.00
O18    O     0.53835   0.68310   0.09747   0.01267  Uiso   1.00
O19    O     0.37057   0.84834   0.45054   0.01267  Uiso   1.00
O20    O     0.49747   0.96854   0.34815   0.01267  Uiso   1.00
O21    O     0.24691   0.73322   0.07832   0.01267  Uiso   1.00
O22    O     0.99712   0.51604   0.07131   0.01267  Uiso   1.00
O23    O     0.82761   0.18582   0.28530   0.01267  Uiso   1.00
O24    O     0.85525   0.31690   0.40253   0.01267  Uiso   1.00
