data_OVEJIJ_clean
_audit_creation_date              2014-07-02
_audit_creation_method            'Materials Studio'
_symmetry_space_group_name_H-M    'P1'
_symmetry_Int_Tables_number       1
_symmetry_cell_setting            triclinic
loop_
_symmetry_equiv_pos_as_xyz
  x,y,z
_cell_length_a                    10.1537
_cell_length_b                    14.3049
_cell_length_c                    18.3128
_cell_angle_alpha                 90.1070
_cell_angle_beta                  90.0000
_cell_angle_gamma                 90.0000
loop_
_atom_site_label
_atom_site_type_symbol
_atom_site_fract_x
_atom_site_fract_y
_atom_site_fract_z
_atom_site_U_iso_or_equiv
_atom_site_adp_type
_atom_site_occupancy
V1     V     0.79960   0.71179   0.80320   0.01267  Uiso   1.00
V2     V     0.31550   0.75765   0.89617   0.01267  Uiso   1.00
V3     V     0.15211   0.74678   0.19661   0.01267  Uiso   1.00
V4     V     0.63763   0.74674   0.10754   0.01267  Uiso   1.00
V5     V     0.29960   0.78821   0.69680   0.01267  Uiso   1.00
V6     V     0.81550   0.74235   0.60383   0.01267  Uiso   1.00
V7     V     0.65211   0.75322   0.30339   0.01267  Uiso   1.00
V8     V     0.13763   0.75326   0.39246   0.01267  Uiso   1.00
V9     V     0.20040   0.28821   0.19680   0.01267  Uiso   1.00
V10    V     0.68450   0.24235   0.10383   0.01267  Uiso   1.00
V11    V     0.84789   0.25322   0.80339   0.01267  Uiso   1.00
V12    V     0.36237   0.25326   0.89246   0.01267  Uiso   1.00
V13    V     0.70040   0.21179   0.30320   0.01267  Uiso   1.00
V14    V     0.18450   0.25765   0.39617   0.01267  Uiso   1.00
V15    V     0.34789   0.24678   0.69661   0.01267  Uiso   1.00
V16    V     0.86237   0.24674   0.60754   0.01267  Uiso   1.00
V17    V     0.50000   0.00000   0.00000   0.01267  Uiso   1.00
V18    V     0.00000   0.50000   0.50000   0.01267  Uiso   1.00
P1     P     0.36301   0.65405   0.30221   0.01267  Uiso   1.00
P2     P     0.35715   0.81586   0.06954   0.01267  Uiso   1.00
P3     P     0.57077   0.66680   0.68635   0.01267  Uiso   1.00
P4     P     0.61088   0.80167   0.93315   0.01267  Uiso   1.00
P5     P     0.86301   0.84595   0.19779   0.01267  Uiso   1.00
P6     P     0.85715   0.68414   0.43046   0.01267  Uiso   1.00
P7     P     0.07077   0.83320   0.81365   0.01267  Uiso   1.00
P8     P     0.11088   0.69833   0.56685   0.01267  Uiso   1.00
P9     P     0.63699   0.34595   0.69779   0.01267  Uiso   1.00
P10    P     0.64285   0.18414   0.93046   0.01267  Uiso   1.00
P11    P     0.42923   0.33320   0.31365   0.01267  Uiso   1.00
P12    P     0.38912   0.19833   0.06685   0.01267  Uiso   1.00
P13    P     0.13699   0.15405   0.80221   0.01267  Uiso   1.00
P14    P     0.14285   0.31586   0.56954   0.01267  Uiso   1.00
P15    P     0.92923   0.16680   0.18635   0.01267  Uiso   1.00
P16    P     0.88912   0.30167   0.43315   0.01267  Uiso   1.00
O1     O     0.28760   0.80300   0.99612   0.01267  Uiso   1.00
O2     O     0.51260   0.57020   0.70520   0.01267  Uiso   1.00
O3     O     0.32570   0.55560   0.27540   0.01267  Uiso   1.00
O4     O     0.62860   0.71270   0.75448   0.01267  Uiso   1.00
O5     O     0.44130   0.90390   0.07149   0.01267  Uiso   1.00
O6     O     0.67400   0.78200   0.00646   0.01267  Uiso   1.00
O7     O     0.29120   0.67410   0.37348   0.01267  Uiso   1.00
O8     O     0.55600   0.90190   0.92913   0.01267  Uiso   1.00
O9     O     0.71600   0.79350   0.87403   0.01267  Uiso   1.00
O10    O     0.32320   0.72540   0.24342   0.01267  Uiso   1.00
O11    O     0.25140   0.82750   0.12854   0.01267  Uiso   1.00
O12    O     0.07430   0.71830   0.29383   0.01267  Uiso   1.00
O13    O     0.45980   0.72770   0.65888   0.01267  Uiso   1.00
O14    O     0.49950   0.73200   0.91839   0.01267  Uiso   1.00
O15    O     0.88110   0.71620   0.70479   0.01267  Uiso   1.00
O16    O     0.67460   0.65340   0.62716   0.01267  Uiso   1.00
O17    O     0.51160   0.65910   0.31566   0.01267  Uiso   1.00
O18    O     0.44610   0.73200   0.08576   0.01267  Uiso   1.00
O19    O     0.78760   0.69700   0.50388   0.01267  Uiso   1.00
O20    O     0.01260   0.92980   0.79480   0.01267  Uiso   1.00
O21    O     0.82570   0.94440   0.22460   0.01267  Uiso   1.00
O22    O     0.12860   0.78730   0.74552   0.01267  Uiso   1.00
O23    O     0.94130   0.59610   0.42851   0.01267  Uiso   1.00
O24    O     0.17400   0.71800   0.49354   0.01267  Uiso   1.00
O25    O     0.79120   0.82590   0.12652   0.01267  Uiso   1.00
O26    O     0.05600   0.59810   0.57087   0.01267  Uiso   1.00
O27    O     0.21600   0.70650   0.62597   0.01267  Uiso   1.00
O28    O     0.82320   0.77460   0.25658   0.01267  Uiso   1.00
O29    O     0.75140   0.67250   0.37146   0.01267  Uiso   1.00
O30    O     0.57430   0.78170   0.20617   0.01267  Uiso   1.00
O31    O     0.95980   0.77230   0.84112   0.01267  Uiso   1.00
O32    O     0.99950   0.76800   0.58161   0.01267  Uiso   1.00
O33    O     0.38110   0.78380   0.79521   0.01267  Uiso   1.00
O34    O     0.17460   0.84660   0.87284   0.01267  Uiso   1.00
O35    O     0.01160   0.84090   0.18434   0.01267  Uiso   1.00
O36    O     0.94610   0.76800   0.41424   0.01267  Uiso   1.00
O37    O     0.71240   0.19700   0.00388   0.01267  Uiso   1.00
O38    O     0.48740   0.42980   0.29480   0.01267  Uiso   1.00
O39    O     0.67430   0.44440   0.72460   0.01267  Uiso   1.00
O40    O     0.37140   0.28730   0.24552   0.01267  Uiso   1.00
O41    O     0.55870   0.09610   0.92851   0.01267  Uiso   1.00
O42    O     0.32600   0.21800   0.99354   0.01267  Uiso   1.00
O43    O     0.70880   0.32590   0.62652   0.01267  Uiso   1.00
O44    O     0.44400   0.09810   0.07087   0.01267  Uiso   1.00
O45    O     0.28400   0.20650   0.12597   0.01267  Uiso   1.00
O46    O     0.67680   0.27460   0.75658   0.01267  Uiso   1.00
O47    O     0.74860   0.17250   0.87146   0.01267  Uiso   1.00
O48    O     0.92570   0.28170   0.70617   0.01267  Uiso   1.00
O49    O     0.54020   0.27230   0.34112   0.01267  Uiso   1.00
O50    O     0.50050   0.26800   0.08161   0.01267  Uiso   1.00
O51    O     0.11890   0.28380   0.29521   0.01267  Uiso   1.00
O52    O     0.32540   0.34660   0.37284   0.01267  Uiso   1.00
O53    O     0.48840   0.34090   0.68434   0.01267  Uiso   1.00
O54    O     0.55390   0.26800   0.91424   0.01267  Uiso   1.00
O55    O     0.21240   0.30300   0.49612   0.01267  Uiso   1.00
O56    O     0.98740   0.07020   0.20520   0.01267  Uiso   1.00
O57    O     0.17430   0.05560   0.77540   0.01267  Uiso   1.00
O58    O     0.87140   0.21270   0.25448   0.01267  Uiso   1.00
O59    O     0.05870   0.40390   0.57149   0.01267  Uiso   1.00
O60    O     0.82600   0.28200   0.50646   0.01267  Uiso   1.00
O61    O     0.20880   0.17410   0.87348   0.01267  Uiso   1.00
O62    O     0.94400   0.40190   0.42913   0.01267  Uiso   1.00
O63    O     0.78400   0.29350   0.37403   0.01267  Uiso   1.00
O64    O     0.17680   0.22540   0.74342   0.01267  Uiso   1.00
O65    O     0.24860   0.32750   0.62854   0.01267  Uiso   1.00
O66    O     0.42570   0.21830   0.79383   0.01267  Uiso   1.00
O67    O     0.04020   0.22770   0.15888   0.01267  Uiso   1.00
O68    O     0.00050   0.23200   0.41839   0.01267  Uiso   1.00
O69    O     0.61890   0.21620   0.20479   0.01267  Uiso   1.00
O70    O     0.82540   0.15340   0.12716   0.01267  Uiso   1.00
O71    O     0.98840   0.15910   0.81566   0.01267  Uiso   1.00
O72    O     0.05390   0.23200   0.58576   0.01267  Uiso   1.00
