data_OXALUV_clean
_audit_creation_date              2014-07-02
_audit_creation_method            'Materials Studio'
_symmetry_space_group_name_H-M    'P1'
_symmetry_Int_Tables_number       1
_symmetry_cell_setting            triclinic
loop_
_symmetry_equiv_pos_as_xyz
  x,y,z
_cell_length_a                    19.6510
_cell_length_b                    21.5190
_cell_length_c                    21.6562
_cell_angle_alpha                 101.9150
_cell_angle_beta                  116.9820
_cell_angle_gamma                 62.9320
loop_
_atom_site_label
_atom_site_type_symbol
_atom_site_fract_x
_atom_site_fract_y
_atom_site_fract_z
_atom_site_U_iso_or_equiv
_atom_site_adp_type
_atom_site_occupancy
In1    In    0.60080   0.58163   0.15917   0.01267  Uiso   1.00
In2    In    0.55837   0.91837   0.15917   0.01267  Uiso   1.00
In3    In    0.39920   0.41837   0.84083   0.01267  Uiso   1.00
In4    In    0.44163   0.08163   0.84083   0.01267  Uiso   1.00
In5    In    0.60871   0.75000   0.21742   0.01267  Uiso   1.00
In6    In    0.39129   0.25000   0.78258   0.01267  Uiso   1.00
In7    In    0.50000   0.50000   0.00000   0.01267  Uiso   1.00
In8    In    0.50000  -0.00000   0.00000   0.01267  Uiso   1.00
H1     H     0.32610   0.44480   0.40800   0.01267  Uiso   1.00
H2     H     0.22840   0.49310   0.39060   0.01267  Uiso   1.00
H3     H     0.28250   0.30190   0.46100   0.01267  Uiso   1.00
H4     H     0.32590   0.28470   0.57960   0.01267  Uiso   1.00
H5     H     0.33360   0.47100   0.62660   0.01267  Uiso   1.00
H6     H     0.30000   0.48430   0.50680   0.01267  Uiso   1.00
H7     H     0.23690   0.47690   0.21760   0.01267  Uiso   1.00
H8     H     0.22340   0.53290   0.27740   0.01267  Uiso   1.00
H9     H     0.41140   0.52990   0.31780   0.01267  Uiso   1.00
H10    H     0.48060   0.55240   0.26580   0.01267  Uiso   1.00
H11    H     0.34320   0.48780   0.08760   0.01267  Uiso   1.00
H12    H     0.28090   0.46470   0.14340   0.01267  Uiso   1.00
H13    H     0.36300   0.34750   0.32460   0.01267  Uiso   1.00
H14    H     0.28800   0.32460   0.30300   0.01267  Uiso   1.00
H15    H     0.38740   0.22520   0.29300   0.01267  Uiso   1.00
H16    H     0.45840   0.11740   0.25060   0.01267  Uiso   1.00
H17    H     0.37330   0.20700   0.07080   0.01267  Uiso   1.00
H18    H     0.30480   0.31610   0.11400   0.01267  Uiso   1.00
H19    H     0.13180   0.43010   0.21460   0.01267  Uiso   1.00
H20    H     0.13760   0.41740   0.28800   0.01267  Uiso   1.00
H21    H     0.01940   0.44070   0.21980   0.01267  Uiso   1.00
H22    H     0.86560   0.48140   0.18500   0.01267  Uiso   1.00
H23    H     0.86280   0.67140   0.25080   0.01267  Uiso   1.00
H24    H     0.00680   0.62730   0.28540   0.01267  Uiso   1.00
H25    H     0.08190   0.05520   0.40800   0.01267  Uiso   1.00
H26    H     0.16220   0.00690   0.39060   0.01267  Uiso   1.00
H27    H     0.17850   0.19810   0.46100   0.01267  Uiso   1.00
H28    H     0.25370   0.21530   0.57960   0.01267  Uiso   1.00
H29    H     0.29300   0.02900   0.62660   0.01267  Uiso   1.00
H30    H     0.20680   0.01570   0.50680   0.01267  Uiso   1.00
H31    H     0.98070   0.02310   0.21760   0.01267  Uiso   1.00
H32    H     0.05400   0.96710   0.27740   0.01267  Uiso   1.00
H33    H     0.90640   0.97010   0.31780   0.01267  Uiso   1.00
H34    H     0.78520   0.94760   0.26580   0.01267  Uiso   1.00
H35    H     0.74440   0.01220   0.08760   0.01267  Uiso   1.00
H36    H     0.86250   0.03530   0.14340   0.01267  Uiso   1.00
H37    H     0.96160   0.15250   0.32460   0.01267  Uiso   1.00
H38    H     0.01500   0.17540   0.30300   0.01267  Uiso   1.00
H39    H     0.90560   0.27480   0.29300   0.01267  Uiso   1.00
H40    H     0.79220   0.38260   0.25060   0.01267  Uiso   1.00
H41    H     0.69750   0.29300   0.07080   0.01267  Uiso   1.00
H42    H     0.80920   0.18390   0.11400   0.01267  Uiso   1.00
H43    H     0.08280   0.06990   0.21460   0.01267  Uiso   1.00
H44    H     0.15040   0.08260   0.28800   0.01267  Uiso   1.00
H45    H     0.20040   0.05930   0.21980   0.01267  Uiso   1.00
H46    H     0.31940   0.01860   0.18500   0.01267  Uiso   1.00
H47    H     0.38800   0.82860   0.25080   0.01267  Uiso   1.00
H48    H     0.27860   0.87270   0.28540   0.01267  Uiso   1.00
H49    H     0.67390   0.55520   0.59200   0.01267  Uiso   1.00
H50    H     0.77160   0.50690   0.60940   0.01267  Uiso   1.00
H51    H     0.71750   0.69810   0.53900   0.01267  Uiso   1.00
H52    H     0.67410   0.71530   0.42040   0.01267  Uiso   1.00
H53    H     0.66640   0.52900   0.37340   0.01267  Uiso   1.00
H54    H     0.70000   0.51570   0.49320   0.01267  Uiso   1.00
H55    H     0.76310   0.52310   0.78240   0.01267  Uiso   1.00
H56    H     0.77660   0.46710   0.72260   0.01267  Uiso   1.00
H57    H     0.58860   0.47010   0.68220   0.01267  Uiso   1.00
H58    H     0.51940   0.44760   0.73420   0.01267  Uiso   1.00
H59    H     0.65680   0.51220   0.91240   0.01267  Uiso   1.00
H60    H     0.71910   0.53530   0.85660   0.01267  Uiso   1.00
H61    H     0.63700   0.65250   0.67540   0.01267  Uiso   1.00
H62    H     0.71200   0.67540   0.69700   0.01267  Uiso   1.00
H63    H     0.61260   0.77480   0.70700   0.01267  Uiso   1.00
H64    H     0.54160   0.88260   0.74940   0.01267  Uiso   1.00
H65    H     0.62670   0.79300   0.92920   0.01267  Uiso   1.00
H66    H     0.69520   0.68390   0.88600   0.01267  Uiso   1.00
H67    H     0.86820   0.56990   0.78540   0.01267  Uiso   1.00
H68    H     0.86240   0.58260   0.71200   0.01267  Uiso   1.00
H69    H     0.98060   0.55930   0.78020   0.01267  Uiso   1.00
H70    H     0.13440   0.51860   0.81500   0.01267  Uiso   1.00
H71    H     0.13720   0.32860   0.74920   0.01267  Uiso   1.00
H72    H     0.99320   0.37270   0.71460   0.01267  Uiso   1.00
H73    H     0.91810   0.94480   0.59200   0.01267  Uiso   1.00
H74    H     0.83780   0.99310   0.60940   0.01267  Uiso   1.00
H75    H     0.82150   0.80190   0.53900   0.01267  Uiso   1.00
H76    H     0.74630   0.78470   0.42040   0.01267  Uiso   1.00
H77    H     0.70700   0.97100   0.37340   0.01267  Uiso   1.00
H78    H     0.79320   0.98430   0.49320   0.01267  Uiso   1.00
H79    H     0.01930   0.97690   0.78240   0.01267  Uiso   1.00
H80    H     0.94600   0.03290   0.72260   0.01267  Uiso   1.00
H81    H     0.09360   0.02990   0.68220   0.01267  Uiso   1.00
H82    H     0.21480   0.05240   0.73420   0.01267  Uiso   1.00
H83    H     0.25560   0.98780   0.91240   0.01267  Uiso   1.00
H84    H     0.13750   0.96470   0.85660   0.01267  Uiso   1.00
H85    H     0.03840   0.84750   0.67540   0.01267  Uiso   1.00
H86    H     0.98500   0.82460   0.69700   0.01267  Uiso   1.00
H87    H     0.09440   0.72520   0.70700   0.01267  Uiso   1.00
H88    H     0.20780   0.61740   0.74940   0.01267  Uiso   1.00
H89    H     0.30250   0.70700   0.92920   0.01267  Uiso   1.00
H90    H     0.19080   0.81610   0.88600   0.01267  Uiso   1.00
H91    H     0.91720   0.93010   0.78540   0.01267  Uiso   1.00
H92    H     0.84960   0.91740   0.71200   0.01267  Uiso   1.00
H93    H     0.79960   0.94070   0.78020   0.01267  Uiso   1.00
H94    H     0.68060   0.98140   0.81500   0.01267  Uiso   1.00
H95    H     0.61200   0.17140   0.74920   0.01267  Uiso   1.00
H96    H     0.72140   0.12730   0.71460   0.01267  Uiso   1.00
C1     C     0.24605   0.43340   0.30090   0.01267  Uiso   1.00
C2     C     0.26870   0.44690   0.38280   0.01267  Uiso   1.00
C3     C     0.28794   0.39290   0.47508   0.01267  Uiso   1.00
C4     C     0.29410   0.33640   0.49420   0.01267  Uiso   1.00
C5     C     0.31853   0.32690   0.56506   0.01267  Uiso   1.00
C6     C     0.33175   0.37760   0.61330   0.01267  Uiso   1.00
C7     C     0.32466   0.43550   0.59372   0.01267  Uiso   1.00
C8     C     0.30331   0.44410   0.52162   0.01267  Uiso   1.00
C9     C     0.35495   0.36430   0.68570   0.01267  Uiso   1.00
C10    C     0.25700   0.48400   0.26840   0.01267  Uiso   1.00
C11    C     0.34130   0.49660   0.23440   0.01267  Uiso   1.00
C12    C     0.39760   0.52110   0.26960   0.01267  Uiso   1.00
C13    C     0.43890   0.53510   0.23880   0.01267  Uiso   1.00
C14    C     0.41830   0.52350   0.17120   0.01267  Uiso   1.00
C15    C     0.35880   0.49700   0.13580   0.01267  Uiso   1.00
C16    C     0.32130   0.48350   0.16860   0.01267  Uiso   1.00
C17    C     0.45809   0.53840   0.13378   0.01267  Uiso   1.00
C18    C     0.30413   0.35700   0.29206   0.01267  Uiso   1.00
C19    C     0.34269   0.28060   0.20898   0.01267  Uiso   1.00
C20    C     0.38511   0.22240   0.24782   0.01267  Uiso   1.00
C21    C     0.42617   0.15740   0.22154   0.01267  Uiso   1.00
C22    C     0.42071   0.15060   0.15602   0.01267  Uiso   1.00
C23    C     0.37665   0.21010   0.11650   0.01267  Uiso   1.00
C24    C     0.33617   0.27570   0.14234   0.01267  Uiso   1.00
C25    C     0.46166   0.08180   0.12772   0.01267  Uiso   1.00
C26    C     0.14792   0.44440   0.26384   0.01267  Uiso   1.00
C27    C     0.98530   0.48810   0.22520   0.01267  Uiso   1.00
C28    C     0.89240   0.51240   0.20500   0.01267  Uiso   1.00
C29    C     0.84953   0.58030   0.21686   0.01267  Uiso   1.00
C30    C     0.89300   0.62320   0.24460   0.01267  Uiso   1.00
C31    C     0.97780   0.59800   0.26320   0.01267  Uiso   1.00
C32    C     0.01681   0.53390   0.24982   0.01267  Uiso   1.00
C33    C     0.75956   0.61070   0.20272   0.01267  Uiso   1.00
C34    C     0.05485   0.06660   0.30090   0.01267  Uiso   1.00
C35    C     0.11410   0.05310   0.38280   0.01267  Uiso   1.00
C36    C     0.18714   0.10710   0.47508   0.01267  Uiso   1.00
C37    C     0.20010   0.16360   0.49420   0.01267  Uiso   1.00
C38    C     0.24653   0.17310   0.56506   0.01267  Uiso   1.00
C39    C     0.28155   0.12240   0.61330   0.01267  Uiso   1.00
C40    C     0.26906   0.06450   0.59372   0.01267  Uiso   1.00
C41    C     0.21831   0.05590   0.52162   0.01267  Uiso   1.00
C42    C     0.33075   0.13570   0.68570   0.01267  Uiso   1.00
C43    C     0.01140   0.01600   0.26840   0.01267  Uiso   1.00
C44    C     0.89310   0.00340   0.23440   0.01267  Uiso   1.00
C45    C     0.87200   0.97890   0.26960   0.01267  Uiso   1.00
C46    C     0.79990   0.96490   0.23880   0.01267  Uiso   1.00
C47    C     0.75290   0.97650   0.17120   0.01267  Uiso   1.00
C48    C     0.77700   0.00300   0.13580   0.01267  Uiso   1.00
C49    C     0.84730   0.01650   0.16860   0.01267  Uiso   1.00
C50    C     0.67569   0.96160   0.13378   0.01267  Uiso   1.00
C51    C     0.98793   0.14300   0.29206   0.01267  Uiso   1.00
C52    C     0.86629   0.21940   0.20898   0.01267  Uiso   1.00
C53    C     0.86271   0.27760   0.24782   0.01267  Uiso   1.00
C54    C     0.79537   0.34260   0.22154   0.01267  Uiso   1.00
C55    C     0.73531   0.34940   0.15602   0.01267  Uiso   1.00
C56    C     0.73985   0.28990   0.11650   0.01267  Uiso   1.00
C57    C     0.80617   0.22430   0.14234   0.01267  Uiso   1.00
C58    C     0.66606   0.41820   0.12772   0.01267  Uiso   1.00
C59    C     0.11592   0.05560   0.26384   0.01267  Uiso   1.00
C60    C     0.23990   0.01190   0.22520   0.01267  Uiso   1.00
C61    C     0.31260   0.98760   0.20500   0.01267  Uiso   1.00
C62    C     0.36733   0.91970   0.21686   0.01267  Uiso   1.00
C63    C     0.35160   0.87680   0.24460   0.01267  Uiso   1.00
C64    C     0.28540   0.90200   0.26320   0.01267  Uiso   1.00
C65    C     0.23301   0.96610   0.24982   0.01267  Uiso   1.00
C66    C     0.44316   0.88930   0.20272   0.01267  Uiso   1.00
C67    C     0.75395   0.56660   0.69910   0.01267  Uiso   1.00
C68    C     0.73130   0.55310   0.61720   0.01267  Uiso   1.00
C69    C     0.71206   0.60710   0.52492   0.01267  Uiso   1.00
C70    C     0.70590   0.66360   0.50580   0.01267  Uiso   1.00
C71    C     0.68147   0.67310   0.43494   0.01267  Uiso   1.00
C72    C     0.66825   0.62240   0.38670   0.01267  Uiso   1.00
C73    C     0.67534   0.56450   0.40628   0.01267  Uiso   1.00
C74    C     0.69669   0.55590   0.47838   0.01267  Uiso   1.00
C75    C     0.64505   0.63570   0.31430   0.01267  Uiso   1.00
C76    C     0.74300   0.51600   0.73160   0.01267  Uiso   1.00
C77    C     0.65870   0.50340   0.76560   0.01267  Uiso   1.00
C78    C     0.60240   0.47890   0.73040   0.01267  Uiso   1.00
C79    C     0.56110   0.46490   0.76120   0.01267  Uiso   1.00
C80    C     0.58170   0.47650   0.82880   0.01267  Uiso   1.00
C81    C     0.64120   0.50300   0.86420   0.01267  Uiso   1.00
C82    C     0.67870   0.51650   0.83140   0.01267  Uiso   1.00
C83    C     0.54191   0.46160   0.86622   0.01267  Uiso   1.00
C84    C     0.69587   0.64300   0.70794   0.01267  Uiso   1.00
C85    C     0.65731   0.71940   0.79102   0.01267  Uiso   1.00
C86    C     0.61489   0.77760   0.75218   0.01267  Uiso   1.00
C87    C     0.57383   0.84260   0.77846   0.01267  Uiso   1.00
C88    C     0.57929   0.84940   0.84398   0.01267  Uiso   1.00
C89    C     0.62335   0.78990   0.88350   0.01267  Uiso   1.00
C90    C     0.66383   0.72430   0.85766   0.01267  Uiso   1.00
C91    C     0.53834   0.91820   0.87228   0.01267  Uiso   1.00
C92    C     0.85208   0.55560   0.73616   0.01267  Uiso   1.00
C93    C     0.01470   0.51190   0.77480   0.01267  Uiso   1.00
C94    C     0.10760   0.48760   0.79500   0.01267  Uiso   1.00
C95    C     0.15047   0.41970   0.78314   0.01267  Uiso   1.00
C96    C     0.10700   0.37680   0.75540   0.01267  Uiso   1.00
C97    C     0.02220   0.40200   0.73680   0.01267  Uiso   1.00
C98    C     0.98319   0.46610   0.75018   0.01267  Uiso   1.00
C99    C     0.24044   0.38930   0.79728   0.01267  Uiso   1.00
C100   C     0.94515   0.93340   0.69910   0.01267  Uiso   1.00
C101   C     0.88590   0.94690   0.61720   0.01267  Uiso   1.00
C102   C     0.81286   0.89290   0.52492   0.01267  Uiso   1.00
C103   C     0.79990   0.83640   0.50580   0.01267  Uiso   1.00
C104   C     0.75347   0.82690   0.43494   0.01267  Uiso   1.00
C105   C     0.71845   0.87760   0.38670   0.01267  Uiso   1.00
C106   C     0.73094   0.93550   0.40628   0.01267  Uiso   1.00
C107   C     0.78169   0.94410   0.47838   0.01267  Uiso   1.00
C108   C     0.66925   0.86430   0.31430   0.01267  Uiso   1.00
C109   C     0.98860   0.98400   0.73160   0.01267  Uiso   1.00
C110   C     0.10690   0.99660   0.76560   0.01267  Uiso   1.00
C111   C     0.12800   0.02110   0.73040   0.01267  Uiso   1.00
C112   C     0.20010   0.03510   0.76120   0.01267  Uiso   1.00
C113   C     0.24710   0.02350   0.82880   0.01267  Uiso   1.00
C114   C     0.22300   0.99700   0.86420   0.01267  Uiso   1.00
C115   C     0.15270   0.98350   0.83140   0.01267  Uiso   1.00
C116   C     0.32431   0.03840   0.86622   0.01267  Uiso   1.00
C117   C     0.01207   0.85700   0.70794   0.01267  Uiso   1.00
C118   C     0.13371   0.78060   0.79102   0.01267  Uiso   1.00
C119   C     0.13729   0.72240   0.75218   0.01267  Uiso   1.00
C120   C     0.20463   0.65740   0.77846   0.01267  Uiso   1.00
C121   C     0.26469   0.65060   0.84398   0.01267  Uiso   1.00
C122   C     0.26015   0.71010   0.88350   0.01267  Uiso   1.00
C123   C     0.19383   0.77570   0.85766   0.01267  Uiso   1.00
C124   C     0.33394   0.58180   0.87228   0.01267  Uiso   1.00
C125   C     0.88408   0.94440   0.73616   0.01267  Uiso   1.00
C126   C     0.76010   0.98810   0.77480   0.01267  Uiso   1.00
C127   C     0.68740   0.01240   0.79500   0.01267  Uiso   1.00
C128   C     0.63267   0.08030   0.78314   0.01267  Uiso   1.00
C129   C     0.64840   0.12320   0.75540   0.01267  Uiso   1.00
C130   C     0.71460   0.09800   0.73680   0.01267  Uiso   1.00
C131   C     0.76699   0.03390   0.75018   0.01267  Uiso   1.00
C132   C     0.55684   0.11070   0.79728   0.01267  Uiso   1.00
O1     O     0.26299   0.39530   0.40378   0.01267  Uiso   1.00
O2     O     0.33620   0.47220   0.29540   0.01267  Uiso   1.00
O3     O     0.29758   0.34650   0.22596   0.01267  Uiso   1.00
O4     O     0.10613   0.51260   0.26986   0.01267  Uiso   1.00
O5     O     0.35475   0.41303   0.72910   0.01267  Uiso   1.00
O6     O     0.37390   0.30240   0.69900   0.01267  Uiso   1.00
O7     O     0.49891   0.57230   0.16602   0.01267  Uiso   1.00
O8     O     0.44685   0.51420   0.07390   0.01267  Uiso   1.00
O9     O     0.45151   0.08041   0.06582   0.01267  Uiso   1.00
O10    O     0.50392   0.03021   0.16824   0.01267  Uiso   1.00
O11    O     0.72113   0.57240   0.17206   0.01267  Uiso   1.00
O12    O     0.72890   0.67170   0.22180   0.01267  Uiso   1.00
O13    O     0.54581   0.69066   0.14804   0.01267  Uiso   1.00
O14    O     0.54681   0.57464   0.04906   0.01267  Uiso   1.00
O15    O     0.14079   0.10470   0.40378   0.01267  Uiso   1.00
O16    O     0.95920   0.02780   0.29540   0.01267  Uiso   1.00
O17    O     0.92838   0.15350   0.22596   0.01267  Uiso   1.00
O18    O     0.16373   0.98740   0.26986   0.01267  Uiso   1.00
O19    O     0.37435   0.08697   0.72910   0.01267  Uiso   1.00
O20    O     0.32510   0.19760   0.69900   0.01267  Uiso   1.00
O21    O     0.66711   0.92770   0.16602   0.01267  Uiso   1.00
O22    O     0.62705   0.98580   0.07390   0.01267  Uiso   1.00
O23    O     0.61431   0.41959   0.06582   0.01267  Uiso   1.00
O24    O     0.66432   0.46979   0.16824   0.01267  Uiso   1.00
O25    O     0.45093   0.92760   0.17206   0.01267  Uiso   1.00
O26    O     0.49290   0.82830   0.22180   0.01267  Uiso   1.00
O27    O     0.60223   0.80934   0.14804   0.01267  Uiso   1.00
O28    O     0.50225   0.92536   0.04906   0.01267  Uiso   1.00
O29    O     0.73701   0.60470   0.59622   0.01267  Uiso   1.00
O30    O     0.66380   0.52780   0.70460   0.01267  Uiso   1.00
O31    O     0.70242   0.65350   0.77404   0.01267  Uiso   1.00
O32    O     0.89387   0.48740   0.73014   0.01267  Uiso   1.00
O33    O     0.64525   0.58697   0.27090   0.01267  Uiso   1.00
O34    O     0.62610   0.69760   0.30100   0.01267  Uiso   1.00
O35    O     0.50109   0.42770   0.83398   0.01267  Uiso   1.00
O36    O     0.55315   0.48580   0.92610   0.01267  Uiso   1.00
O37    O     0.54849   0.91959   0.93418   0.01267  Uiso   1.00
O38    O     0.49608   0.96979   0.83176   0.01267  Uiso   1.00
O39    O     0.27887   0.42760   0.82794   0.01267  Uiso   1.00
O40    O     0.27110   0.32830   0.77820   0.01267  Uiso   1.00
O41    O     0.45419   0.30934   0.85196   0.01267  Uiso   1.00
O42    O     0.45319   0.42536   0.95094   0.01267  Uiso   1.00
O43    O     0.85921   0.89530   0.59622   0.01267  Uiso   1.00
O44    O     0.04080   0.97220   0.70460   0.01267  Uiso   1.00
O45    O     0.07162   0.84650   0.77404   0.01267  Uiso   1.00
O46    O     0.83627   0.01260   0.73014   0.01267  Uiso   1.00
O47    O     0.62565   0.91303   0.27090   0.01267  Uiso   1.00
O48    O     0.67490   0.80240   0.30100   0.01267  Uiso   1.00
O49    O     0.33289   0.07230   0.83398   0.01267  Uiso   1.00
O50    O     0.37295   0.01420   0.92610   0.01267  Uiso   1.00
O51    O     0.38569   0.58041   0.93418   0.01267  Uiso   1.00
O52    O     0.33568   0.53021   0.83176   0.01267  Uiso   1.00
O53    O     0.54907   0.07240   0.82794   0.01267  Uiso   1.00
O54    O     0.50710   0.17170   0.77820   0.01267  Uiso   1.00
O55    O     0.39777   0.19066   0.85196   0.01267  Uiso   1.00
O56    O     0.49775   0.07464   0.95094   0.01267  Uiso   1.00
