data_PAPHEV_clean
_audit_creation_date              2014-07-02
_audit_creation_method            'Materials Studio'
_symmetry_space_group_name_H-M    'P1'
_symmetry_Int_Tables_number       1
_symmetry_cell_setting            triclinic
loop_
_symmetry_equiv_pos_as_xyz
  x,y,z
_cell_length_a                    13.3311
_cell_length_b                    13.4803
_cell_length_c                    17.2856
_cell_angle_alpha                 101.3720
_cell_angle_beta                  90.0000
_cell_angle_gamma                 119.6350
loop_
_atom_site_label
_atom_site_type_symbol
_atom_site_fract_x
_atom_site_fract_y
_atom_site_fract_z
_atom_site_U_iso_or_equiv
_atom_site_adp_type
_atom_site_occupancy
Zn1    Zn    0.43616   0.50114   0.25730   0.01267  Uiso   1.00
Zn2    Zn    0.56384   0.49886   0.74270   0.01267  Uiso   1.00
H1     H     0.43620   0.75540   0.12220   0.01267  Uiso   1.00
H2     H     0.58810   0.90760   0.08200   0.01267  Uiso   1.00
H3     H     0.81040   0.86280   0.20350   0.01267  Uiso   1.00
H4     H     0.19580   0.38240   0.33910   0.01267  Uiso   1.00
H5     H     0.32620   0.67920   0.49680   0.01267  Uiso   1.00
H6     H     0.46510   0.69240   0.40420   0.01267  Uiso   1.00
H7     H     0.06900   0.37940   0.44750   0.01267  Uiso   1.00
H8     H     0.14250   0.46560   0.52740   0.01267  Uiso   1.00
H9     H     0.10110   0.60660   0.49630   0.01267  Uiso   1.00
H10    H     0.01950   0.51280   0.42110   0.01267  Uiso   1.00
H11    H     0.59100   0.26980   0.25040   0.01267  Uiso   1.00
H12    H     0.53970   0.09020   0.17050   0.01267  Uiso   1.00
H13    H     0.27800   0.08540   0.05800   0.01267  Uiso   1.00
H14    H     0.56380   0.24460   0.87780   0.01267  Uiso   1.00
H15    H     0.41190   0.09240   0.91800   0.01267  Uiso   1.00
H16    H     0.18960   0.13720   0.79650   0.01267  Uiso   1.00
H17    H     0.80420   0.61760   0.66090   0.01267  Uiso   1.00
H18    H     0.67380   0.32080   0.50320   0.01267  Uiso   1.00
H19    H     0.53490   0.30760   0.59580   0.01267  Uiso   1.00
H20    H     0.93100   0.62060   0.55250   0.01267  Uiso   1.00
H21    H     0.85750   0.53440   0.47260   0.01267  Uiso   1.00
H22    H     0.89890   0.39340   0.50370   0.01267  Uiso   1.00
H23    H     0.98050   0.48720   0.57890   0.01267  Uiso   1.00
H24    H     0.40900   0.73020   0.74960   0.01267  Uiso   1.00
H25    H     0.46030   0.90980   0.82950   0.01267  Uiso   1.00
H26    H     0.72200   0.91460   0.94200   0.01267  Uiso   1.00
C1     C     0.64374   0.74588   0.21140   0.01267  Uiso   1.00
C2     C     0.52788   0.70656   0.18300   0.01267  Uiso   1.00
C3     C     0.51162   0.77404   0.13710   0.01267  Uiso   1.00
C4     C     0.60243   0.86626   0.11340   0.01267  Uiso   1.00
C5     C     0.71503   0.89706   0.13650   0.01267  Uiso   1.00
C6     C     0.73428   0.83916   0.18610   0.01267  Uiso   1.00
C7     C     0.67458   0.69836   0.27210   0.01267  Uiso   1.00
C8     C     0.24656   0.45852   0.36720   0.01267  Uiso   1.00
C9     C     0.31640   0.62020   0.45380   0.01267  Uiso   1.00
C10    C     0.39250   0.62680   0.40260   0.01267  Uiso   1.00
C11    C     0.11874   0.46148   0.47320   0.01267  Uiso   1.00
C12    C     0.05005   0.52330   0.47490   0.01267  Uiso   1.00
C13    C     0.36841   0.23282   0.14520   0.01267  Uiso   1.00
C14    C     0.46524   0.29148   0.20420   0.01267  Uiso   1.00
C15    C     0.52730   0.23400   0.21190   0.01267  Uiso   1.00
C16    C     0.49650   0.12560   0.16410   0.01267  Uiso   1.00
C17    C     0.40300   0.07080   0.10750   0.01267  Uiso   1.00
C18    C     0.34067   0.12314   0.09750   0.01267  Uiso   1.00
C19    C     0.28662   0.27364   0.13420   0.01267  Uiso   1.00
C20    C     0.35626   0.25412   0.78860   0.01267  Uiso   1.00
C21    C     0.47212   0.29344   0.81700   0.01267  Uiso   1.00
C22    C     0.48838   0.22596   0.86290   0.01267  Uiso   1.00
C23    C     0.39757   0.13374   0.88660   0.01267  Uiso   1.00
C24    C     0.28497   0.10294   0.86350   0.01267  Uiso   1.00
C25    C     0.26572   0.16084   0.81390   0.01267  Uiso   1.00
C26    C     0.32542   0.30164   0.72790   0.01267  Uiso   1.00
C27    C     0.75344   0.54148   0.63280   0.01267  Uiso   1.00
C28    C     0.68360   0.37980   0.54620   0.01267  Uiso   1.00
C29    C     0.60750   0.37320   0.59740   0.01267  Uiso   1.00
C30    C     0.88126   0.53852   0.52680   0.01267  Uiso   1.00
C31    C     0.94995   0.47670   0.52510   0.01267  Uiso   1.00
C32    C     0.63159   0.76718   0.85480   0.01267  Uiso   1.00
C33    C     0.53476   0.70852   0.79580   0.01267  Uiso   1.00
C34    C     0.47270   0.76600   0.78810   0.01267  Uiso   1.00
C35    C     0.50350   0.87440   0.83590   0.01267  Uiso   1.00
C36    C     0.59700   0.92920   0.89250   0.01267  Uiso   1.00
C37    C     0.65933   0.87686   0.90250   0.01267  Uiso   1.00
C38    C     0.71338   0.72636   0.86580   0.01267  Uiso   1.00
Br1    Br    0.84237   0.02154   0.10306   0.01267  Uiso   1.00
Br2    Br    0.35630   0.91890   0.04523   0.01267  Uiso   1.00
Br3    Br    0.15763   0.97846   0.89694   0.01267  Uiso   1.00
Br4    Br    0.64370   0.08110   0.95477   0.01267  Uiso   1.00
N1     N     0.34986   0.52512   0.34810   0.01267  Uiso   1.00
N2     N     0.22209   0.51158   0.43140   0.01267  Uiso   1.00
N3     N     0.65014   0.47488   0.65190   0.01267  Uiso   1.00
N4     N     0.77791   0.48842   0.56860   0.01267  Uiso   1.00
O1     O     0.78128   0.73002   0.28671   0.01267  Uiso   1.00
O2     O     0.59932   0.63074   0.30950   0.01267  Uiso   1.00
O3     O     0.43693   0.61260   0.19567   0.01267  Uiso   1.00
O4     O     0.30025   0.36868   0.17789   0.01267  Uiso   1.00
O5     O     0.19884   0.21548   0.08480   0.01267  Uiso   1.00
O6     O     0.49861   0.39364   0.25230   0.01267  Uiso   1.00
O7     O     0.21872   0.26998   0.71329   0.01267  Uiso   1.00
O8     O     0.40068   0.36926   0.69050   0.01267  Uiso   1.00
O9     O     0.56307   0.38740   0.80433   0.01267  Uiso   1.00
O10    O     0.69975   0.63132   0.82211   0.01267  Uiso   1.00
O11    O     0.80116   0.78452   0.91520   0.01267  Uiso   1.00
O12    O     0.50139   0.60636   0.74770   0.01267  Uiso   1.00
Zn3    Zn    0.93502   0.49886   0.24270   0.01267  Uiso   1.00
Zn4    Zn    0.06498   0.50114   0.75730   0.01267  Uiso   1.00
H27    H     0.81340   0.61760   0.16090   0.01267  Uiso   1.00
H28    H     0.64700   0.32080   0.00320   0.01267  Uiso   1.00
H29    H     0.77270   0.30760   0.09580   0.01267  Uiso   1.00
H30    H     0.68960   0.62060   0.05250   0.01267  Uiso   1.00
H31    H     0.67690   0.53440   0.97260   0.01267  Uiso   1.00
H32    H     0.49450   0.39340   0.00370   0.01267  Uiso   1.00
H33    H     0.50670   0.48720   0.07890   0.01267  Uiso   1.00
H34    H     0.32120   0.73020   0.24960   0.01267  Uiso   1.00
H35    H     0.44950   0.90980   0.32950   0.01267  Uiso   1.00
H36    H     0.19260   0.91460   0.44200   0.01267  Uiso   1.00
H37    H     0.68080   0.24460   0.37780   0.01267  Uiso   1.00
H38    H     0.68050   0.09240   0.41800   0.01267  Uiso   1.00
H39    H     0.94760   0.13720   0.29650   0.01267  Uiso   1.00
H40    H     0.18660   0.38240   0.83910   0.01267  Uiso   1.00
H41    H     0.35300   0.67920   0.99680   0.01267  Uiso   1.00
H42    H     0.22730   0.69240   0.90420   0.01267  Uiso   1.00
H43    H     0.31040   0.37940   0.94750   0.01267  Uiso   1.00
H44    H     0.32310   0.46560   0.02740   0.01267  Uiso   1.00
H45    H     0.50550   0.60660   0.99630   0.01267  Uiso   1.00
H46    H     0.49330   0.51280   0.92110   0.01267  Uiso   1.00
H47    H     0.67880   0.26980   0.75040   0.01267  Uiso   1.00
H48    H     0.55050   0.09020   0.67050   0.01267  Uiso   1.00
H49    H     0.80740   0.08540   0.55800   0.01267  Uiso   1.00
H50    H     0.31920   0.75540   0.62220   0.01267  Uiso   1.00
H51    H     0.31950   0.90760   0.58200   0.01267  Uiso   1.00
H52    H     0.05240   0.86280   0.70350   0.01267  Uiso   1.00
C39    C     0.78804   0.54148   0.13280   0.01267  Uiso   1.00
C40    C     0.69620   0.37980   0.04620   0.01267  Uiso   1.00
C41    C     0.76570   0.37320   0.09740   0.01267  Uiso   1.00
C42    C     0.65726   0.53852   0.02680   0.01267  Uiso   1.00
C43    C     0.52675   0.47670   0.02510   0.01267  Uiso   1.00
C44    C     0.13559   0.76718   0.35480   0.01267  Uiso   1.00
C45    C     0.17376   0.70852   0.29580   0.01267  Uiso   1.00
C46    C     0.29330   0.76600   0.28810   0.01267  Uiso   1.00
C47    C     0.37090   0.87440   0.33590   0.01267  Uiso   1.00
C48    C     0.33220   0.92920   0.39250   0.01267  Uiso   1.00
C49    C     0.21753   0.87686   0.40250   0.01267  Uiso   1.00
C50    C     0.01298   0.72636   0.36580   0.01267  Uiso   1.00
C51    C     0.89786   0.25412   0.28860   0.01267  Uiso   1.00
C52    C     0.82132   0.29344   0.31700   0.01267  Uiso   1.00
C53    C     0.73758   0.22596   0.36290   0.01267  Uiso   1.00
C54    C     0.73617   0.13374   0.38660   0.01267  Uiso   1.00
C55    C     0.81797   0.10294   0.36350   0.01267  Uiso   1.00
C56    C     0.89512   0.16084   0.31390   0.01267  Uiso   1.00
C57    C     0.97622   0.30164   0.22790   0.01267  Uiso   1.00
C58    C     0.21196   0.45852   0.86720   0.01267  Uiso   1.00
C59    C     0.30380   0.62020   0.95380   0.01267  Uiso   1.00
C60    C     0.23430   0.62680   0.90260   0.01267  Uiso   1.00
C61    C     0.34274   0.46148   0.97320   0.01267  Uiso   1.00
C62    C     0.47325   0.52330   0.97490   0.01267  Uiso   1.00
C63    C     0.86441   0.23282   0.64520   0.01267  Uiso   1.00
C64    C     0.82624   0.29148   0.70420   0.01267  Uiso   1.00
C65    C     0.70670   0.23400   0.71190   0.01267  Uiso   1.00
C66    C     0.62910   0.12560   0.66410   0.01267  Uiso   1.00
C67    C     0.66780   0.07080   0.60750   0.01267  Uiso   1.00
C68    C     0.78247   0.12314   0.59750   0.01267  Uiso   1.00
C69    C     0.98702   0.27364   0.63420   0.01267  Uiso   1.00
C70    C     0.10214   0.74588   0.71140   0.01267  Uiso   1.00
C71    C     0.17868   0.70656   0.68300   0.01267  Uiso   1.00
C72    C     0.26242   0.77404   0.63710   0.01267  Uiso   1.00
C73    C     0.26383   0.86626   0.61340   0.01267  Uiso   1.00
C74    C     0.18203   0.89706   0.63650   0.01267  Uiso   1.00
C75    C     0.10488   0.83916   0.68610   0.01267  Uiso   1.00
C76    C     0.02378   0.69836   0.77210   0.01267  Uiso   1.00
Br5    Br    0.43740   0.08110   0.45477   0.01267  Uiso   1.00
Br6    Br    0.82083   0.97846   0.39694   0.01267  Uiso   1.00
Br7    Br    0.56260   0.91890   0.54523   0.01267  Uiso   1.00
Br8    Br    0.17917   0.02154   0.60306   0.01267  Uiso   1.00
N5     N     0.82474   0.47488   0.15190   0.01267  Uiso   1.00
N6     N     0.71051   0.48842   0.06860   0.01267  Uiso   1.00
N7     N     0.17526   0.52512   0.84810   0.01267  Uiso   1.00
N8     N     0.28949   0.51158   0.93140   0.01267  Uiso   1.00
O13    O     0.93157   0.63132   0.32211   0.01267  Uiso   1.00
O14    O     0.98336   0.78452   0.41520   0.01267  Uiso   1.00
O15    O     0.10497   0.60636   0.24770   0.01267  Uiso   1.00
O16    O     0.05126   0.26998   0.21329   0.01267  Uiso   1.00
O17    O     0.96858   0.36926   0.19050   0.01267  Uiso   1.00
O18    O     0.82433   0.38740   0.30433   0.01267  Uiso   1.00
O19    O     0.06843   0.36868   0.67789   0.01267  Uiso   1.00
O20    O     0.01664   0.21548   0.58480   0.01267  Uiso   1.00
O21    O     0.89503   0.39364   0.75230   0.01267  Uiso   1.00
O22    O     0.94874   0.73002   0.78671   0.01267  Uiso   1.00
O23    O     0.03142   0.63074   0.80950   0.01267  Uiso   1.00
O24    O     0.17567   0.61260   0.69567   0.01267  Uiso   1.00
