data_PAPYOW_ion_b
_audit_creation_date              2014-07-02
_audit_creation_method            'Materials Studio'
_symmetry_space_group_name_H-M    'P1'
_symmetry_Int_Tables_number       1
_symmetry_cell_setting            triclinic
loop_
_symmetry_equiv_pos_as_xyz
  x,y,z
_cell_length_a                    18.1419
_cell_length_b                    18.9467
_cell_length_c                    24.0974
_cell_angle_alpha                 90.0000
_cell_angle_beta                  94.4180
_cell_angle_gamma                 90.0000
loop_
_atom_site_label
_atom_site_type_symbol
_atom_site_fract_x
_atom_site_fract_y
_atom_site_fract_z
_atom_site_U_iso_or_equiv
_atom_site_adp_type
_atom_site_occupancy
U1     U     0.32509   0.56600   0.36112   0.00000  Uiso   1.00
U2     U     0.26307   0.63525   0.14326   0.00000  Uiso   1.00
Cs3    Cs    0.90873   0.36986   0.32124   0.00000  Uiso   1.00
Cs4    Cs    0.72782   0.26373   0.21571   0.00000  Uiso   1.00
S5     S     0.61864   0.33015   0.52016   0.00000  Uiso   1.00
S6     S     0.12503   0.30127   0.36001   0.00000  Uiso   1.00
S7     S     0.16511   0.88576   0.41936   0.00000  Uiso   1.00
O8     O     0.25150   0.56280   0.40508   0.00000  Uiso   1.00
O9     O     0.39780   0.56610   0.31609   0.00000  Uiso   1.00
O10    O     0.17570   0.67720   0.13210   0.00000  Uiso   1.00
O11    O     0.34750   0.58960   0.15108   0.00000  Uiso   1.00
O12    O     0.41280   0.50298   0.42749   0.00000  Uiso   1.00
O13    O     0.33550   0.43703   0.37526   0.00000  Uiso   1.00
O14    O     0.61230   0.34855   0.57967   0.00000  Uiso   1.00
O15    O     0.65340   0.38570   0.48989   0.00000  Uiso   1.00
O16    O     0.65030   0.26110   0.51450   0.00000  Uiso   1.00
O17    O     0.24650   0.53010   0.28796   0.00000  Uiso   1.00
O18    O     0.20940   0.54720   0.19949   0.00000  Uiso   1.00
O19    O     0.18500   0.24930   0.36120   0.00000  Uiso   1.00
O20    O     0.05150   0.27160   0.36090   0.00000  Uiso   1.00
O21    O     0.14110   0.35440   0.40180   0.00000  Uiso   1.00
O22    O     0.28060   0.67270   0.32486   0.00000  Uiso   1.00
O23    O     0.27020   0.68240   0.23382   0.00000  Uiso   1.00
O24    O     0.10230   0.93350   0.41781   0.00000  Uiso   1.00
O25    O     0.23450   0.92250   0.43544   0.00000  Uiso   1.00
O26    O     0.15690   0.82310   0.45283   0.00000  Uiso   1.00
C92    C     0.38830   0.44300   0.41330   0.00000  Uiso   1.00
C93    C     0.42090   0.37870   0.44117   0.00000  Uiso   1.00
C94    C     0.49170   0.38390   0.46850   0.00000  Uiso   1.00
H95    H     0.51620   0.42710   0.47080   0.00000  Uiso   1.00
C96    C     0.52470   0.32420   0.49220   0.00000  Uiso   1.00
C97    C     0.48620   0.26070   0.49290   0.00000  Uiso   1.00
H98    H     0.50820   0.22140   0.51040   0.00000  Uiso   1.00
C99    C     0.41550   0.25610   0.46760   0.00000  Uiso   1.00
H100   H     0.38950   0.21380   0.46840   0.00000  Uiso   1.00
C101   C     0.38320   0.31490   0.44110   0.00000  Uiso   1.00
H102   H     0.33610   0.31150   0.42320   0.00000  Uiso   1.00
C103   C     0.21260   0.51050   0.24290   0.00000  Uiso   1.00
C104   C     0.17270   0.44180   0.24360   0.00000  Uiso   1.00
C105   C     0.16780   0.40730   0.29400   0.00000  Uiso   1.00
H106   H     0.19040   0.42620   0.32660   0.00000  Uiso   1.00
C107   C     0.12900   0.34440   0.29520   0.00000  Uiso   1.00
C108   C     0.09510   0.31480   0.24640   0.00000  Uiso   1.00
H109   H     0.06790   0.27330   0.24760   0.00000  Uiso   1.00
C110   C     0.10310   0.34890   0.19670   0.00000  Uiso   1.00
H111   H     0.08210   0.32910   0.16380   0.00000  Uiso   1.00
C112   C     0.14100   0.41090   0.19440   0.00000  Uiso   1.00
H113   H     0.14580   0.43270   0.16030   0.00000  Uiso   1.00
C114   C     0.26000   0.70500   0.28069   0.00000  Uiso   1.00
C115   C     0.22000   0.77290   0.28800   0.00000  Uiso   1.00
C116   C     0.21100   0.79610   0.34180   0.00000  Uiso   1.00
H117   H     0.23110   0.77030   0.37210   0.00000  Uiso   1.00
C118   C     0.17250   0.85730   0.35030   0.00000  Uiso   1.00
C119   C     0.14230   0.89650   0.30470   0.00000  Uiso   1.00
H120   H     0.11670   0.93810   0.31050   0.00000  Uiso   1.00
C121   C     0.15040   0.87330   0.25150   0.00000  Uiso   1.00
H122   H     0.13050   0.89940   0.22140   0.00000  Uiso   1.00
C123   C     0.18830   0.81090   0.24230   0.00000  Uiso   1.00
H124   H     0.19250   0.79480   0.20620   0.00000  Uiso   1.00
U197   U     0.17491   0.06600   0.13888   0.00000  Uiso   1.00
U198   U     0.23693   0.13525   0.35674   0.00000  Uiso   1.00
Cs199  Cs    0.59127   0.86986   0.17876   0.00000  Uiso   1.00
Cs200  Cs    0.77218   0.76373   0.28429   0.00000  Uiso   1.00
S201   S     0.88136   0.83015   0.97984   0.00000  Uiso   1.00
S202   S     0.37497   0.80127   0.13999   0.00000  Uiso   1.00
S203   S     0.33489   0.38576   0.08064   0.00000  Uiso   1.00
O204   O     0.24850   0.06280   0.09492   0.00000  Uiso   1.00
O205   O     0.10220   0.06610   0.18391   0.00000  Uiso   1.00
O206   O     0.32430   0.17720   0.36790   0.00000  Uiso   1.00
O207   O     0.15250   0.08960   0.34892   0.00000  Uiso   1.00
O208   O     0.08720   0.00298   0.07251   0.00000  Uiso   1.00
O209   O     0.16450   0.93703   0.12474   0.00000  Uiso   1.00
O210   O     0.88770   0.84855   0.92033   0.00000  Uiso   1.00
O211   O     0.84660   0.88570   0.01011   0.00000  Uiso   1.00
O212   O     0.84970   0.76110   0.98550   0.00000  Uiso   1.00
O213   O     0.25350   0.03010   0.21204   0.00000  Uiso   1.00
O214   O     0.29060   0.04720   0.30051   0.00000  Uiso   1.00
O215   O     0.31500   0.74930   0.13880   0.00000  Uiso   1.00
O216   O     0.44850   0.77160   0.13910   0.00000  Uiso   1.00
O217   O     0.35890   0.85440   0.09820   0.00000  Uiso   1.00
O218   O     0.21940   0.17270   0.17514   0.00000  Uiso   1.00
O219   O     0.22980   0.18240   0.26618   0.00000  Uiso   1.00
O220   O     0.39770   0.43350   0.08219   0.00000  Uiso   1.00
O221   O     0.26550   0.42250   0.06456   0.00000  Uiso   1.00
O222   O     0.34310   0.32310   0.04717   0.00000  Uiso   1.00
C288   C     0.11170   0.94300   0.08670   0.00000  Uiso   1.00
C289   C     0.07910   0.87870   0.05883   0.00000  Uiso   1.00
C290   C     0.00830   0.88390   0.03150   0.00000  Uiso   1.00
H291   H     0.98380   0.92710   0.02920   0.00000  Uiso   1.00
C292   C     0.97530   0.82420   0.00780   0.00000  Uiso   1.00
C293   C     0.01380   0.76070   0.00710   0.00000  Uiso   1.00
H294   H     0.99180   0.72140   0.98960   0.00000  Uiso   1.00
C295   C     0.08450   0.75610   0.03240   0.00000  Uiso   1.00
H296   H     0.11050   0.71380   0.03160   0.00000  Uiso   1.00
C297   C     0.11680   0.81490   0.05890   0.00000  Uiso   1.00
H298   H     0.16390   0.81150   0.07680   0.00000  Uiso   1.00
C299   C     0.28740   0.01050   0.25710   0.00000  Uiso   1.00
C300   C     0.32730   0.94180   0.25640   0.00000  Uiso   1.00
C301   C     0.33220   0.90730   0.20600   0.00000  Uiso   1.00
H302   H     0.30960   0.92620   0.17340   0.00000  Uiso   1.00
C303   C     0.37100   0.84440   0.20480   0.00000  Uiso   1.00
C304   C     0.40490   0.81480   0.25360   0.00000  Uiso   1.00
H305   H     0.43210   0.77330   0.25240   0.00000  Uiso   1.00
C306   C     0.39690   0.84890   0.30330   0.00000  Uiso   1.00
H307   H     0.41790   0.82910   0.33620   0.00000  Uiso   1.00
C308   C     0.35900   0.91090   0.30560   0.00000  Uiso   1.00
H309   H     0.35420   0.93270   0.33970   0.00000  Uiso   1.00
C310   C     0.24000   0.20500   0.21931   0.00000  Uiso   1.00
C311   C     0.28000   0.27290   0.21200   0.00000  Uiso   1.00
C312   C     0.28900   0.29610   0.15820   0.00000  Uiso   1.00
H313   H     0.26890   0.27030   0.12790   0.00000  Uiso   1.00
C314   C     0.32750   0.35730   0.14970   0.00000  Uiso   1.00
C315   C     0.35770   0.39650   0.19530   0.00000  Uiso   1.00
H316   H     0.38330   0.43810   0.18950   0.00000  Uiso   1.00
C317   C     0.34960   0.37330   0.24850   0.00000  Uiso   1.00
H318   H     0.36950   0.39940   0.27860   0.00000  Uiso   1.00
C319   C     0.31170   0.31090   0.25770   0.00000  Uiso   1.00
H320   H     0.30750   0.29480   0.29380   0.00000  Uiso   1.00
U393   U     0.67491   0.43400   0.63888   0.00000  Uiso   1.00
U394   U     0.73693   0.36475   0.85674   0.00000  Uiso   1.00
Cs395  Cs    0.09127   0.63014   0.67876   0.00000  Uiso   1.00
Cs396  Cs    0.27218   0.73627   0.78429   0.00000  Uiso   1.00
S397   S     0.38136   0.66985   0.47984   0.00000  Uiso   1.00
S398   S     0.87497   0.69873   0.63999   0.00000  Uiso   1.00
S399   S     0.83489   0.11424   0.58064   0.00000  Uiso   1.00
O400   O     0.74850   0.43720   0.59492   0.00000  Uiso   1.00
O401   O     0.60220   0.43390   0.68391   0.00000  Uiso   1.00
O402   O     0.82430   0.32280   0.86790   0.00000  Uiso   1.00
O403   O     0.65250   0.41040   0.84892   0.00000  Uiso   1.00
O404   O     0.58720   0.49702   0.57251   0.00000  Uiso   1.00
O405   O     0.66450   0.56297   0.62474   0.00000  Uiso   1.00
O406   O     0.38770   0.65145   0.42033   0.00000  Uiso   1.00
O407   O     0.34660   0.61430   0.51011   0.00000  Uiso   1.00
O408   O     0.34970   0.73890   0.48550   0.00000  Uiso   1.00
O409   O     0.75350   0.46990   0.71204   0.00000  Uiso   1.00
O410   O     0.79060   0.45280   0.80051   0.00000  Uiso   1.00
O411   O     0.81500   0.75070   0.63880   0.00000  Uiso   1.00
O412   O     0.94850   0.72840   0.63910   0.00000  Uiso   1.00
O413   O     0.85890   0.64560   0.59820   0.00000  Uiso   1.00
O414   O     0.71940   0.32730   0.67514   0.00000  Uiso   1.00
O415   O     0.72980   0.31760   0.76618   0.00000  Uiso   1.00
O416   O     0.89770   0.06650   0.58219   0.00000  Uiso   1.00
O417   O     0.76550   0.07750   0.56456   0.00000  Uiso   1.00
O418   O     0.84310   0.17690   0.54717   0.00000  Uiso   1.00
C484   C     0.61170   0.55700   0.58670   0.00000  Uiso   1.00
C485   C     0.57910   0.62130   0.55883   0.00000  Uiso   1.00
C486   C     0.50830   0.61610   0.53150   0.00000  Uiso   1.00
H487   H     0.48380   0.57290   0.52920   0.00000  Uiso   1.00
C488   C     0.47530   0.67580   0.50780   0.00000  Uiso   1.00
C489   C     0.51380   0.73930   0.50710   0.00000  Uiso   1.00
H490   H     0.49180   0.77860   0.48960   0.00000  Uiso   1.00
C491   C     0.58450   0.74390   0.53240   0.00000  Uiso   1.00
H492   H     0.61050   0.78620   0.53160   0.00000  Uiso   1.00
C493   C     0.61680   0.68510   0.55890   0.00000  Uiso   1.00
H494   H     0.66390   0.68850   0.57680   0.00000  Uiso   1.00
C495   C     0.78740   0.48950   0.75710   0.00000  Uiso   1.00
C496   C     0.82730   0.55820   0.75640   0.00000  Uiso   1.00
C497   C     0.83220   0.59270   0.70600   0.00000  Uiso   1.00
H498   H     0.80960   0.57380   0.67340   0.00000  Uiso   1.00
C499   C     0.87100   0.65560   0.70480   0.00000  Uiso   1.00
C500   C     0.90490   0.68520   0.75360   0.00000  Uiso   1.00
H501   H     0.93210   0.72670   0.75240   0.00000  Uiso   1.00
C502   C     0.89690   0.65110   0.80330   0.00000  Uiso   1.00
H503   H     0.91790   0.67090   0.83620   0.00000  Uiso   1.00
C504   C     0.85900   0.58910   0.80560   0.00000  Uiso   1.00
H505   H     0.85420   0.56730   0.83970   0.00000  Uiso   1.00
C506   C     0.74000   0.29500   0.71931   0.00000  Uiso   1.00
C507   C     0.78000   0.22710   0.71200   0.00000  Uiso   1.00
C508   C     0.78900   0.20390   0.65820   0.00000  Uiso   1.00
H509   H     0.76890   0.22970   0.62790   0.00000  Uiso   1.00
C510   C     0.82750   0.14270   0.64970   0.00000  Uiso   1.00
C511   C     0.85770   0.10350   0.69530   0.00000  Uiso   1.00
H512   H     0.88330   0.06190   0.68950   0.00000  Uiso   1.00
C513   C     0.84960   0.12670   0.74850   0.00000  Uiso   1.00
H514   H     0.86950   0.10060   0.77860   0.00000  Uiso   1.00
C515   C     0.81170   0.18910   0.75770   0.00000  Uiso   1.00
H516   H     0.80750   0.20520   0.79380   0.00000  Uiso   1.00
U589   U     0.82509   0.93400   0.86112   0.00000  Uiso   1.00
U590   U     0.76307   0.86475   0.64326   0.00000  Uiso   1.00
Cs591  Cs    0.40873   0.13014   0.82124   0.00000  Uiso   1.00
Cs592  Cs    0.22782   0.23627   0.71571   0.00000  Uiso   1.00
S593   S     0.11864   0.16985   0.02016   0.00000  Uiso   1.00
S594   S     0.62503   0.19873   0.86001   0.00000  Uiso   1.00
S595   S     0.66511   0.61424   0.91936   0.00000  Uiso   1.00
O596   O     0.75150   0.93720   0.90508   0.00000  Uiso   1.00
O597   O     0.89780   0.93390   0.81609   0.00000  Uiso   1.00
O598   O     0.67570   0.82280   0.63210   0.00000  Uiso   1.00
O599   O     0.84750   0.91040   0.65108   0.00000  Uiso   1.00
O600   O     0.91280   0.99702   0.92749   0.00000  Uiso   1.00
O601   O     0.83550   0.06297   0.87526   0.00000  Uiso   1.00
O602   O     0.11230   0.15145   0.07967   0.00000  Uiso   1.00
O603   O     0.15340   0.11430   0.98989   0.00000  Uiso   1.00
O604   O     0.15030   0.23890   0.01450   0.00000  Uiso   1.00
O605   O     0.74650   0.96990   0.78796   0.00000  Uiso   1.00
O606   O     0.70940   0.95280   0.69949   0.00000  Uiso   1.00
O607   O     0.68500   0.25070   0.86120   0.00000  Uiso   1.00
O608   O     0.55150   0.22840   0.86090   0.00000  Uiso   1.00
O609   O     0.64110   0.14560   0.90180   0.00000  Uiso   1.00
O610   O     0.78060   0.82730   0.82486   0.00000  Uiso   1.00
O611   O     0.77020   0.81760   0.73382   0.00000  Uiso   1.00
O612   O     0.60230   0.56650   0.91781   0.00000  Uiso   1.00
O613   O     0.73450   0.57750   0.93544   0.00000  Uiso   1.00
O614   O     0.65690   0.67690   0.95283   0.00000  Uiso   1.00
C680   C     0.88830   0.05700   0.91330   0.00000  Uiso   1.00
C681   C     0.92090   0.12130   0.94117   0.00000  Uiso   1.00
C682   C     0.99170   0.11610   0.96850   0.00000  Uiso   1.00
H683   H     0.01620   0.07290   0.97080   0.00000  Uiso   1.00
C684   C     0.02470   0.17580   0.99220   0.00000  Uiso   1.00
C685   C     0.98620   0.23930   0.99290   0.00000  Uiso   1.00
H686   H     0.00820   0.27860   0.01040   0.00000  Uiso   1.00
C687   C     0.91550   0.24390   0.96760   0.00000  Uiso   1.00
H688   H     0.88950   0.28620   0.96840   0.00000  Uiso   1.00
C689   C     0.88320   0.18510   0.94110   0.00000  Uiso   1.00
H690   H     0.83610   0.18850   0.92320   0.00000  Uiso   1.00
C691   C     0.71260   0.98950   0.74290   0.00000  Uiso   1.00
C692   C     0.67270   0.05820   0.74360   0.00000  Uiso   1.00
C693   C     0.66780   0.09270   0.79400   0.00000  Uiso   1.00
H694   H     0.69040   0.07380   0.82660   0.00000  Uiso   1.00
C695   C     0.62900   0.15560   0.79520   0.00000  Uiso   1.00
C696   C     0.59510   0.18520   0.74640   0.00000  Uiso   1.00
H697   H     0.56790   0.22670   0.74760   0.00000  Uiso   1.00
C698   C     0.60310   0.15110   0.69670   0.00000  Uiso   1.00
H699   H     0.58210   0.17090   0.66380   0.00000  Uiso   1.00
C700   C     0.64100   0.08910   0.69440   0.00000  Uiso   1.00
H701   H     0.64580   0.06730   0.66030   0.00000  Uiso   1.00
C702   C     0.76000   0.79500   0.78069   0.00000  Uiso   1.00
C703   C     0.72000   0.72710   0.78800   0.00000  Uiso   1.00
C704   C     0.71100   0.70390   0.84180   0.00000  Uiso   1.00
H705   H     0.73110   0.72970   0.87210   0.00000  Uiso   1.00
C706   C     0.67250   0.64270   0.85030   0.00000  Uiso   1.00
C707   C     0.64230   0.60350   0.80470   0.00000  Uiso   1.00
H708   H     0.61670   0.56190   0.81050   0.00000  Uiso   1.00
C709   C     0.65040   0.62670   0.75150   0.00000  Uiso   1.00
H710   H     0.63050   0.60060   0.72140   0.00000  Uiso   1.00
C711   C     0.68830   0.68910   0.74230   0.00000  Uiso   1.00
H712   H     0.69250   0.70520   0.70620   0.00000  Uiso   1.00
loop_
_geom_bond_atom_site_label_1
_geom_bond_atom_site_label_2
_geom_bond_distance
_geom_bond_site_symmetry_2
_ccdc_geom_bond_type
U1     O8      1.768   .     S
U1     O9      1.771   .     S
U1     O12     2.475   .     S
U1     O13     2.472   .     S
U1     O17     2.284   .     S
U1     O22     2.322   .     S
U1     O406    2.387   .     S
U2     O10     1.775   .     S
U2     O11     1.756   .     S
U2     O18     2.402   .     S
U2     O23     2.352   .     S
U2     O215    2.363   .     S
S5     O14     1.489   .     S
S5     O15     1.452   .     D
S5     O16     1.439   .     D
S5     C96     1.787   .     S
S6     O19     1.466   .     S
S6     O20     1.449   .     D
S6     O21     1.438   .     D
S6     C107    1.769   .     S
S7     O24     1.453   .     D
S7     O25     1.464   .     D
S7     O26     1.449   .     S
S7     C118    1.764   .     S
O12    C92     1.258   .     D
O13    C92     1.279   .     S
O14    U393    2.387   .     S
O17    C103    1.262   .     S
O18    C103    1.254   .     D
O19    U198    2.363   .     S
O22    C114    1.259   .     D
O23    C114    1.235   .     S
C92    C93     1.491   .     S
C93    C94     1.401   .     S
C93    C101    1.389   .     D
C94    H95     0.931   .     S
C94    C96     1.383   .     D
C96    C97     1.392   .     S
C97    H98     0.930   .     S
C97    C99     1.380   .     D
C99    H100    0.931   .     S
C99    C101    1.391   .     S
C101   H102    0.929   .     S
C103   C104    1.490   .     S
C104   C105    1.388   .     S
C104   C112    1.405   .     D
C105   H106    0.929   .     S
C105   C107    1.386   .     D
C107   C108    1.401   .     S
C108   H109    0.930   .     S
C108   C110    1.378   .     D
C110   H111    0.932   .     S
C110   C112    1.364   .     S
C112   H113    0.930   .     S
C114   C115    1.494   .     S
C115   C116    1.390   .     S
C115   C123    1.402   .     D
C116   H117    0.930   .     S
C116   C118    1.377   .     D
C118   C119    1.402   .     S
C119   H120    0.931   .     S
C119   C121    1.374   .     D
C121   H122    0.928   .     S
C121   C123    1.394   .     S
C123   H124    0.930   .     S
U197   O204    1.768   .     S
U197   O205    1.771   .     S
U197   O208    2.475   .     S
U197   O213    2.284   .     S
U197   O218    2.322   .     S
U197   O602    2.387   .     S
U197   O209    2.472   1_545 S
U198   O206    1.775   .     S
U198   O207    1.756   .     S
U198   O214    2.402   .     S
U198   O219    2.352   .     S
S201   O210    1.489   .     S
S201   O212    1.439   .     D
S201   O211    1.452   1_556 S
S201   C292    1.787   1_556 S
S202   O215    1.466   .     S
S202   O216    1.449   .     D
S202   O217    1.438   .     D
S202   C303    1.769   .     S
S203   O220    1.453   .     D
S203   O221    1.464   .     D
S203   O222    1.449   .     S
S203   C314    1.764   .     S
O208   C288    1.258   1_545 S
O209   C288    1.279   .     S
O209   U197    2.472   1_565 S
O210   U589    2.387   .     S
O211   S201    1.452   1_554 S
O213   C299    1.262   .     S
O214   C299    1.254   .     D
O218   C310    1.259   .     D
O219   C310    1.235   .     S
C288   C289    1.491   .     S
C288   O208    1.258   1_565 S
C289   C290    1.401   .     D
C289   C297    1.389   .     S
C290   H291    0.931   1_455 S
C290   C292    1.383   1_455 S
H291   C290    0.931   1_655 S
C292   S201    1.787   1_554 S
C292   C290    1.383   1_655 S
C292   C293    1.392   1_655 S
C293   C295    1.380   .     S
C293   C292    1.392   1_455 S
C293   H294    0.930   1_454 D
H294   C293    0.930   1_656 D
C295   H296    0.931   .     S
C295   C297    1.391   .     D
C297   H298    0.929   .     S
C299   C300    1.490   1_545 S
C300   C301    1.388   .     S
C300   C308    1.405   .     D
C300   C299    1.490   1_565 S
C301   H302    0.929   .     S
C301   C303    1.386   .     D
C303   C304    1.401   .     S
C304   H305    0.930   .     S
C304   C306    1.378   .     D
C306   H307    0.932   .     S
C306   C308    1.364   .     S
C308   H309    0.930   .     S
C310   C311    1.494   .     S
C311   C312    1.390   .     S
C311   C319    1.402   .     D
C312   H313    0.930   .     S
C312   C314    1.377   .     D
C314   C315    1.402   .     S
C315   H316    0.931   .     S
C315   C317    1.374   .     D
C317   H318    0.928   .     S
C317   C319    1.394   .     S
C319   H320    0.930   .     S
U393   O400    1.768   .     S
U393   O401    1.771   .     S
U393   O404    2.475   .     S
U393   O405    2.472   .     S
U393   O409    2.284   .     S
U393   O414    2.322   .     S
U394   O402    1.775   .     S
U394   O403    1.756   .     S
U394   O410    2.402   .     S
U394   O415    2.352   .     S
U394   O607    2.363   .     S
S397   O406    1.489   .     S
S397   O407    1.452   .     D
S397   O408    1.439   .     D
S397   C488    1.787   .     S
S398   O411    1.466   .     S
S398   O412    1.449   .     D
S398   O413    1.438   .     D
S398   C499    1.769   .     S
S399   O416    1.453   .     D
S399   O417    1.464   .     D
S399   O418    1.449   .     S
S399   C510    1.764   .     S
O404   C484    1.258   .     D
O405   C484    1.279   .     S
O409   C495    1.262   .     S
O410   C495    1.254   .     D
O411   U590    2.363   .     S
O414   C506    1.259   .     D
O415   C506    1.235   .     S
C484   C485    1.491   .     S
C485   C486    1.401   .     S
C485   C493    1.389   .     D
C486   H487    0.931   .     S
C486   C488    1.383   .     D
C488   C489    1.392   .     S
C489   H490    0.930   .     S
C489   C491    1.380   .     D
C491   H492    0.931   .     S
C491   C493    1.391   .     S
C493   H494    0.929   .     S
C495   C496    1.490   .     S
C496   C497    1.388   .     S
C496   C504    1.405   .     D
C497   H498    0.929   .     S
C497   C499    1.386   .     D
C499   C500    1.401   .     S
C500   H501    0.930   .     S
C500   C502    1.378   .     D
C502   H503    0.932   .     S
C502   C504    1.364   .     S
C504   H505    0.930   .     S
C506   C507    1.494   .     S
C507   C508    1.390   .     S
C507   C515    1.402   .     D
C508   H509    0.930   .     S
C508   C510    1.377   .     D
C510   C511    1.402   .     S
C511   H512    0.931   .     S
C511   C513    1.374   .     D
C513   H514    0.928   .     S
C513   C515    1.394   .     S
C515   H516    0.930   .     S
U589   O596    1.768   .     S
U589   O597    1.771   .     S
U589   O600    2.475   .     S
U589   O605    2.284   .     S
U589   O610    2.322   .     S
U589   O601    2.472   1_565 D
U590   O598    1.775   .     S
U590   O599    1.756   .     S
U590   O606    2.402   .     S
U590   O611    2.352   .     S
S593   O602    1.489   .     S
S593   O604    1.439   .     D
S593   O603    1.452   1_554 S
S593   C684    1.787   1_554 D
S594   O607    1.466   .     S
S594   O608    1.449   .     D
S594   O609    1.438   .     D
S594   C695    1.769   .     S
S595   O612    1.453   .     D
S595   O613    1.464   .     D
S595   O614    1.449   .     S
S595   C706    1.764   .     S
O600   C680    1.258   1_565 D
O601   C680    1.279   .     S
O601   U589    2.472   1_545 D
O603   S593    1.452   1_556 S
O605   C691    1.262   .     S
O606   C691    1.254   .     D
O610   C702    1.259   .     D
O611   C702    1.235   .     S
C680   C681    1.491   .     S
C680   O600    1.258   1_545 D
C681   C682    1.401   .     D
C681   C689    1.389   .     S
C682   H683    0.931   1_655 S
C682   C684    1.383   1_655 S
H683   C682    0.931   1_455 S
C684   S593    1.787   1_556 D
C684   C682    1.383   1_455 S
C684   C685    1.392   1_455 D
C685   C687    1.380   .     S
C685   C684    1.392   1_655 D
C685   H686    0.930   1_656 S
H686   C685    0.930   1_454 S
C687   H688    0.931   .     S
C687   C689    1.391   .     D
C689   H690    0.929   .     S
C691   C692    1.490   1_565 D
C692   C693    1.388   .     S
C692   C700    1.405   .     D
C692   C691    1.490   1_545 D
C693   H694    0.929   .     S
C693   C695    1.386   .     D
C695   C696    1.401   .     S
C696   H697    0.930   .     S
C696   C698    1.378   .     D
C698   H699    0.932   .     S
C698   C700    1.364   .     S
C700   H701    0.930   .     S
C702   C703    1.494   .     S
C703   C704    1.390   .     S
C703   C711    1.402   .     D
C704   H705    0.930   .     S
C704   C706    1.377   .     D
C706   C707    1.402   .     S
C707   H708    0.931   .     S
C707   C709    1.374   .     D
C709   H710    0.928   .     S
C709   C711    1.394   .     S
C711   H712    0.930   .     S
