data_PAQVOU_charged
_audit_creation_date              2014-07-02
_audit_creation_method            'Materials Studio'
_symmetry_space_group_name_H-M    'P1'
_symmetry_Int_Tables_number       1
_symmetry_cell_setting            triclinic
loop_
_symmetry_equiv_pos_as_xyz
  x,y,z
_cell_length_a                    7.4852
_cell_length_b                    12.6780
_cell_length_c                    30.1070
_cell_angle_alpha                 89.0266
_cell_angle_beta                  86.7010
_cell_angle_gamma                 72.8302
loop_
_atom_site_label
_atom_site_type_symbol
_atom_site_fract_x
_atom_site_fract_y
_atom_site_fract_z
_atom_site_U_iso_or_equiv
_atom_site_adp_type
_atom_site_occupancy
Li1    Li    0.27170   0.45660   0.25000   0.01267  Uiso   1.00
Li2    Li    0.72830   0.54340   0.75000   0.01267  Uiso   1.00
Fe1    Fe    0.15213   0.69574   0.75000   0.01267  Uiso   1.00
Fe2    Fe    0.84787   0.30426   0.25000   0.01267  Uiso   1.00
Ni1    Ni    0.00000   0.00000   0.50000   0.01267  Uiso   1.00
Ni2    Ni    0.00000   0.00000   0.00000   0.01267  Uiso   1.00
H1     H     0.64950   0.77780   0.54200   0.01267  Uiso   1.00
H2     H     0.62080   0.70680   0.47100   0.01267  Uiso   1.00
H3     H     0.09420   0.78480   0.35620   0.01267  Uiso   1.00
H4     H     0.78200   0.91880   0.35240   0.01267  Uiso   1.00
H5     H     0.27220   0.59880   0.40780   0.01267  Uiso   1.00
H6     H     0.46940   0.47280   0.35760   0.01267  Uiso   1.00
H7     H     0.77820   0.67200   0.33700   0.01267  Uiso   1.00
H8     H     0.57690   0.80260   0.38330   0.01267  Uiso   1.00
H9     H     0.67340   0.98000   0.57810   0.01267  Uiso   1.00
H10    H     0.89960   0.92720   0.63010   0.01267  Uiso   1.00
H11    H     0.56350   0.78580   0.70220   0.01267  Uiso   1.00
H12    H     0.33950   0.84220   0.65110   0.01267  Uiso   1.00
H13    H     0.57270   0.77780   0.95800   0.01267  Uiso   1.00
H14    H     0.67240   0.70680   0.02900   0.01267  Uiso   1.00
H15    H     0.12100   0.78480   0.14380   0.01267  Uiso   1.00
H16    H     0.29920   0.91880   0.14760   0.01267  Uiso   1.00
H17    H     0.12900   0.59880   0.09220   0.01267  Uiso   1.00
H18    H     0.05780   0.47280   0.14240   0.01267  Uiso   1.00
H19    H     0.54980   0.67200   0.16300   0.01267  Uiso   1.00
H20    H     0.62050   0.80260   0.11670   0.01267  Uiso   1.00
H21    H     0.34660   0.98000   0.92190   0.01267  Uiso   1.00
H22    H     0.17320   0.92720   0.86990   0.01267  Uiso   1.00
H23    H     0.65070   0.78580   0.79780   0.01267  Uiso   1.00
H24    H     0.81830   0.84220   0.84890   0.01267  Uiso   1.00
H25    H     0.35050   0.22220   0.45800   0.01267  Uiso   1.00
H26    H     0.37920   0.29320   0.52900   0.01267  Uiso   1.00
H27    H     0.90580   0.21520   0.64380   0.01267  Uiso   1.00
H28    H     0.21800   0.08120   0.64760   0.01267  Uiso   1.00
H29    H     0.72780   0.40120   0.59220   0.01267  Uiso   1.00
H30    H     0.53060   0.52720   0.64240   0.01267  Uiso   1.00
H31    H     0.22180   0.32800   0.66300   0.01267  Uiso   1.00
H32    H     0.42310   0.19740   0.61670   0.01267  Uiso   1.00
H33    H     0.32660   0.02000   0.42190   0.01267  Uiso   1.00
H34    H     0.10040   0.07280   0.36990   0.01267  Uiso   1.00
H35    H     0.43650   0.21420   0.29780   0.01267  Uiso   1.00
H36    H     0.66050   0.15780   0.34890   0.01267  Uiso   1.00
H37    H     0.42730   0.22220   0.04200   0.01267  Uiso   1.00
H38    H     0.32760   0.29320   0.97100   0.01267  Uiso   1.00
H39    H     0.87900   0.21520   0.85620   0.01267  Uiso   1.00
H40    H     0.70080   0.08120   0.85240   0.01267  Uiso   1.00
H41    H     0.87100   0.40120   0.90780   0.01267  Uiso   1.00
H42    H     0.94220   0.52720   0.85760   0.01267  Uiso   1.00
H43    H     0.45020   0.32800   0.83700   0.01267  Uiso   1.00
H44    H     0.37950   0.19740   0.88330   0.01267  Uiso   1.00
H45    H     0.65340   0.02000   0.07810   0.01267  Uiso   1.00
H46    H     0.82680   0.07280   0.13010   0.01267  Uiso   1.00
H47    H     0.34930   0.21420   0.20220   0.01267  Uiso   1.00
H48    H     0.18170   0.15780   0.15110   0.01267  Uiso   1.00
C1     C     0.37560   0.88860   0.53586   0.01267  Uiso   1.00
C2     C     0.54620   0.80160   0.52460   0.01267  Uiso   1.00
C3     C     0.52980   0.76260   0.48620   0.01267  Uiso   1.00
C4     C     0.34730   0.81980   0.47062   0.01267  Uiso   1.00
C5     C     0.28057   0.79826   0.43106   0.01267  Uiso   1.00
C6     C     0.10315   0.85510   0.41855   0.01267  Uiso   1.00
C7     C     0.03350   0.83720   0.37766   0.01267  Uiso   1.00
C8     C     0.86140   0.91060   0.37573   0.01267  Uiso   1.00
C9     C     0.82389   0.97262   0.41539   0.01267  Uiso   1.00
C10    C     0.34056   0.94508   0.57478   0.01267  Uiso   1.00
C11    C     0.40400   0.71360   0.40085   0.01267  Uiso   1.00
C12    C     0.37260   0.61580   0.39300   0.01267  Uiso   1.00
C13    C     0.49050   0.54020   0.36250   0.01267  Uiso   1.00
C14    C     0.63740   0.56620   0.33970   0.01267  Uiso   1.00
C15    C     0.67140   0.65800   0.34980   0.01267  Uiso   1.00
C16    C     0.55360   0.73540   0.37890   0.01267  Uiso   1.00
C17    C     0.76340   0.48580   0.30680   0.01267  Uiso   1.00
C18    C     0.48517   0.91446   0.60928   0.01267  Uiso   1.00
C19    C     0.65233   0.94074   0.60327   0.01267  Uiso   1.00
C20    C     0.78800   0.90920   0.63431   0.01267  Uiso   1.00
C21    C     0.75568   0.85004   0.67199   0.01267  Uiso   1.00
C22    C     0.58630   0.82540   0.67735   0.01267  Uiso   1.00
C23    C     0.45270   0.85820   0.64663   0.01267  Uiso   1.00
C24    C     0.90438   0.80504   0.70341   0.01267  Uiso   1.00
C25    C     0.73580   0.88860   0.96414   0.01267  Uiso   1.00
C26    C     0.65220   0.80160   0.97540   0.01267  Uiso   1.00
C27    C     0.70760   0.76260   0.01380   0.01267  Uiso   1.00
C28    C     0.83290   0.81980   0.02938   0.01267  Uiso   1.00
C29    C     0.92117   0.79826   0.06894   0.01267  Uiso   1.00
C30    C     0.04175   0.85510   0.08145   0.01267  Uiso   1.00
C31    C     0.12930   0.83720   0.12234   0.01267  Uiso   1.00
C32    C     0.22800   0.91060   0.12427   0.01267  Uiso   1.00
C33    C     0.20349   0.97262   0.08461   0.01267  Uiso   1.00
C34    C     0.71436   0.94508   0.92522   0.01267  Uiso   1.00
C35    C     0.88240   0.71360   0.09915   0.01267  Uiso   1.00
C36    C     0.01160   0.61580   0.10700   0.01267  Uiso   1.00
C37    C     0.96930   0.54020   0.13750   0.01267  Uiso   1.00
C38    C     0.79640   0.56620   0.16030   0.01267  Uiso   1.00
C39    C     0.67060   0.65800   0.15020   0.01267  Uiso   1.00
C40    C     0.71100   0.73540   0.12110   0.01267  Uiso   1.00
C41    C     0.75080   0.48580   0.19320   0.01267  Uiso   1.00
C42    C     0.60037   0.91446   0.89072   0.01267  Uiso   1.00
C43    C     0.40693   0.94074   0.89673   0.01267  Uiso   1.00
C44    C     0.30280   0.90920   0.86569   0.01267  Uiso   1.00
C45    C     0.39428   0.85004   0.82801   0.01267  Uiso   1.00
C46    C     0.58830   0.82540   0.82265   0.01267  Uiso   1.00
C47    C     0.68910   0.85820   0.85337   0.01267  Uiso   1.00
C48    C     0.29058   0.80504   0.79659   0.01267  Uiso   1.00
C49    C     0.62440   0.11140   0.46414   0.01267  Uiso   1.00
C50    C     0.45380   0.19840   0.47540   0.01267  Uiso   1.00
C51    C     0.47020   0.23740   0.51380   0.01267  Uiso   1.00
C52    C     0.65270   0.18020   0.52938   0.01267  Uiso   1.00
C53    C     0.71943   0.20174   0.56894   0.01267  Uiso   1.00
C54    C     0.89685   0.14490   0.58145   0.01267  Uiso   1.00
C55    C     0.96650   0.16280   0.62234   0.01267  Uiso   1.00
C56    C     0.13860   0.08940   0.62427   0.01267  Uiso   1.00
C57    C     0.17611   0.02738   0.58461   0.01267  Uiso   1.00
C58    C     0.65944   0.05492   0.42522   0.01267  Uiso   1.00
C59    C     0.59600   0.28640   0.59915   0.01267  Uiso   1.00
C60    C     0.62740   0.38420   0.60700   0.01267  Uiso   1.00
C61    C     0.50950   0.45980   0.63750   0.01267  Uiso   1.00
C62    C     0.36260   0.43380   0.66030   0.01267  Uiso   1.00
C63    C     0.32860   0.34200   0.65020   0.01267  Uiso   1.00
C64    C     0.44640   0.26460   0.62110   0.01267  Uiso   1.00
C65    C     0.23660   0.51420   0.69320   0.01267  Uiso   1.00
C66    C     0.51483   0.08554   0.39072   0.01267  Uiso   1.00
C67    C     0.34767   0.05926   0.39673   0.01267  Uiso   1.00
C68    C     0.21200   0.09080   0.36569   0.01267  Uiso   1.00
C69    C     0.24432   0.14996   0.32801   0.01267  Uiso   1.00
C70    C     0.41370   0.17460   0.32265   0.01267  Uiso   1.00
C71    C     0.54730   0.14180   0.35337   0.01267  Uiso   1.00
C72    C     0.09562   0.19496   0.29659   0.01267  Uiso   1.00
C73    C     0.26420   0.11140   0.03586   0.01267  Uiso   1.00
C74    C     0.34780   0.19840   0.02460   0.01267  Uiso   1.00
C75    C     0.29240   0.23740   0.98620   0.01267  Uiso   1.00
C76    C     0.16710   0.18020   0.97062   0.01267  Uiso   1.00
C77    C     0.07883   0.20174   0.93106   0.01267  Uiso   1.00
C78    C     0.95825   0.14490   0.91855   0.01267  Uiso   1.00
C79    C     0.87070   0.16280   0.87766   0.01267  Uiso   1.00
C80    C     0.77200   0.08940   0.87573   0.01267  Uiso   1.00
C81    C     0.79651   0.02738   0.91539   0.01267  Uiso   1.00
C82    C     0.28564   0.05492   0.07478   0.01267  Uiso   1.00
C83    C     0.11760   0.28640   0.90085   0.01267  Uiso   1.00
C84    C     0.98840   0.38420   0.89300   0.01267  Uiso   1.00
C85    C     0.03070   0.45980   0.86250   0.01267  Uiso   1.00
C86    C     0.20360   0.43380   0.83970   0.01267  Uiso   1.00
C87    C     0.32940   0.34200   0.84980   0.01267  Uiso   1.00
C88    C     0.28900   0.26460   0.87890   0.01267  Uiso   1.00
C89    C     0.24920   0.51420   0.80680   0.01267  Uiso   1.00
C90    C     0.39963   0.08554   0.10928   0.01267  Uiso   1.00
C91    C     0.59307   0.05926   0.10327   0.01267  Uiso   1.00
C92    C     0.69720   0.09080   0.13431   0.01267  Uiso   1.00
C93    C     0.60572   0.14996   0.17199   0.01267  Uiso   1.00
C94    C     0.41170   0.17460   0.17735   0.01267  Uiso   1.00
C95    C     0.31090   0.14180   0.14663   0.01267  Uiso   1.00
C96    C     0.70942   0.19496   0.20341   0.01267  Uiso   1.00
N1     N     0.25260   0.89980   0.50230   0.01267  Uiso   1.00
N2     N     0.97294   0.93972   0.44277   0.01267  Uiso   1.00
N3     N     0.84760   0.89980   0.99770   0.01267  Uiso   1.00
N4     N     0.08734   0.93972   0.05723   0.01267  Uiso   1.00
N5     N     0.74740   0.10020   0.49770   0.01267  Uiso   1.00
N6     N     0.02706   0.06028   0.55723   0.01267  Uiso   1.00
N7     N     0.15240   0.10020   0.00230   0.01267  Uiso   1.00
N8     N     0.91266   0.06028   0.94277   0.01267  Uiso   1.00
O1     O     0.71753   0.40194   0.29698   0.01267  Uiso   1.00
O2     O     0.89950   0.50940   0.28860   0.01267  Uiso   1.00
O3     O     0.05979   0.82382   0.69895   0.01267  Uiso   1.00
O4     O     0.88098   0.74224   0.73477   0.01267  Uiso   1.00
O5     O     0.88053   0.40194   0.20302   0.01267  Uiso   1.00
O6     O     0.59110   0.50940   0.21140   0.01267  Uiso   1.00
O7     O     0.11639   0.82382   0.80105   0.01267  Uiso   1.00
O8     O     0.37678   0.74224   0.76523   0.01267  Uiso   1.00
O9     O     0.28247   0.59806   0.70302   0.01267  Uiso   1.00
O10    O     0.10050   0.49060   0.71140   0.01267  Uiso   1.00
O11    O     0.94021   0.17618   0.30105   0.01267  Uiso   1.00
O12    O     0.11902   0.25776   0.26523   0.01267  Uiso   1.00
O13    O     0.11947   0.59806   0.79698   0.01267  Uiso   1.00
O14    O     0.40890   0.49060   0.78860   0.01267  Uiso   1.00
O15    O     0.88361   0.17618   0.19895   0.01267  Uiso   1.00
O16    O     0.62322   0.25776   0.23477   0.01267  Uiso   1.00
