data_PARPII_clean_h
_audit_creation_date              2014-07-02
_audit_creation_method            'Materials Studio'
_symmetry_space_group_name_H-M    'P1'
_symmetry_Int_Tables_number       1
_symmetry_cell_setting            triclinic
loop_
_symmetry_equiv_pos_as_xyz
  x,y,z
_cell_length_a                    6.5472
_cell_length_b                    7.5305
_cell_length_c                    12.7118
_cell_angle_alpha                 107.2300
_cell_angle_beta                  103.5550
_cell_angle_gamma                 90.0000
loop_
_atom_site_label
_atom_site_type_symbol
_atom_site_fract_x
_atom_site_fract_y
_atom_site_fract_z
_atom_site_U_iso_or_equiv
_atom_site_adp_type
_atom_site_occupancy
Al1    Al    0.00000   0.00000   0.00000   0.01267  Uiso   1.00
Al2    Al    0.50000   0.00000  -0.00000   0.01267  Uiso   1.00
C1     C     0.06860   0.08680   0.71160   0.01267  Uiso   1.00
C2     C     0.20100   0.00450   0.63300   0.01267  Uiso   1.00
C3     C     0.22940   0.90170   0.43940   0.01267  Uiso   1.00
C4     C     0.15400   0.08900   0.82600   0.01267  Uiso   1.00
C5     C     0.09600   0.96100   0.51600   0.01267  Uiso   1.00
C6     C     0.87100   0.13300   0.67800   0.01267  Uiso   1.00
C7     C     0.43140   0.37520   0.28840   0.01267  Uiso   1.00
C8     C     0.29900   0.37150   0.36700   0.01267  Uiso   1.00
C9     C     0.27060   0.46230   0.56060   0.01267  Uiso   1.00
C10    C     0.34600   0.26300   0.17400   0.01267  Uiso   1.00
C11    C     0.40400   0.44500   0.48400   0.01267  Uiso   1.00
C12    C     0.62900   0.45500   0.32200   0.01267  Uiso   1.00
C13    C     0.93140   0.91320   0.28840   0.01267  Uiso   1.00
C14    C     0.79900   0.99550   0.36700   0.01267  Uiso   1.00
C15    C     0.77060   0.09830   0.56060   0.01267  Uiso   1.00
C16    C     0.84600   0.91100   0.17400   0.01267  Uiso   1.00
C17    C     0.90400   0.03900   0.48400   0.01267  Uiso   1.00
C18    C     0.12900   0.86700   0.32200   0.01267  Uiso   1.00
C19    C     0.56860   0.62480   0.71160   0.01267  Uiso   1.00
C20    C     0.70100   0.62850   0.63300   0.01267  Uiso   1.00
C21    C     0.72940   0.53770   0.43940   0.01267  Uiso   1.00
C22    C     0.65400   0.73700   0.82600   0.01267  Uiso   1.00
C23    C     0.59600   0.55500   0.51600   0.01267  Uiso   1.00
C24    C     0.37100   0.54500   0.67800   0.01267  Uiso   1.00
O1     O     0.06100   0.12850   0.90700   0.01267  Uiso   1.00
O2     O     0.34840   0.07040   0.86440   0.01267  Uiso   1.00
O3     O     0.43900   0.22150   0.09300   0.01267  Uiso   1.00
O4     O     0.15160   0.20600   0.13560   0.01267  Uiso   1.00
O5     O     0.93900   0.87150   0.09300   0.01267  Uiso   1.00
O6     O     0.65160   0.92960   0.13560   0.01267  Uiso   1.00
O7     O     0.56100   0.77850   0.90700   0.01267  Uiso   1.00
O8     O     0.84840   0.79400   0.86440   0.01267  Uiso   1.00
O9     O     0.25000   0.90100   0.00000   0.01267  Uiso   1.00
O10    O     0.75000   0.09900  -0.00000   0.01267  Uiso   1.00
H1     H     0.37228   0.98088   0.66791   0.01267  Uiso   1.00
H2     H     0.40317   0.88523   0.47373   0.01267  Uiso   1.00
H3     H     0.77996   0.20144   0.74384   0.01267  Uiso   1.00
H4     H     0.12772   0.31297   0.33209   0.01267  Uiso   1.00
H5     H     0.09683   0.41150   0.52627   0.01267  Uiso   1.00
H6     H     0.72004   0.45760   0.25616   0.01267  Uiso   1.00
H7     H     0.62772   0.01912   0.33209   0.01267  Uiso   1.00
H8     H     0.59561   0.11828   0.53353   0.01267  Uiso   1.00
H9     H     0.22004   0.79856   0.25616   0.01267  Uiso   1.00
H10    H     0.87228   0.68703   0.66791   0.01267  Uiso   1.00
H11    H     0.90439   0.58475   0.46647   0.01267  Uiso   1.00
H12    H     0.28343   0.54427   0.74555   0.01267  Uiso   1.00
