data_PAZXUJ_clean
_audit_creation_date              2014-07-02
_audit_creation_method            'Materials Studio'
_symmetry_space_group_name_H-M    'P1'
_symmetry_Int_Tables_number       1
_symmetry_cell_setting            triclinic
loop_
_symmetry_equiv_pos_as_xyz
  x,y,z
_cell_length_a                    8.8680
_cell_length_b                    9.8480
_cell_length_c                    13.7520
_cell_angle_alpha                 90.0000
_cell_angle_beta                  90.0000
_cell_angle_gamma                 116.3500
loop_
_atom_site_label
_atom_site_type_symbol
_atom_site_fract_x
_atom_site_fract_y
_atom_site_fract_z
_atom_site_U_iso_or_equiv
_atom_site_adp_type
_atom_site_occupancy
Cu1    Cu    0.91802   0.47113   0.64837   0.01267  Uiso   1.00
Cu2    Cu    0.00000   0.00000   0.84897   0.01267  Uiso   1.00
Cu3    Cu    0.41802   0.97113   0.35163   0.01267  Uiso   1.00
Cu4    Cu    0.50000   0.50000   0.15103   0.01267  Uiso   1.00
H1     H     0.32660   0.98710   0.91390   0.01267  Uiso   1.00
H2     H     0.43900   0.81370   0.89190   0.01267  Uiso   1.00
H3     H     0.28850   0.59770   0.79870   0.01267  Uiso   1.00
H4     H     0.65230   0.89170   0.72760   0.01267  Uiso   1.00
H5     H     0.49200   0.68290   0.62960   0.01267  Uiso   1.00
H6     H     0.58720   0.49490   0.60770   0.01267  Uiso   1.00
H7     H     0.72860   0.04620   0.96480   0.01267  Uiso   1.00
H8     H     0.58530   0.20010   0.95500   0.01267  Uiso   1.00
H9     H     0.67200   0.38520   0.81190   0.01267  Uiso   1.00
H10    H     0.27680   0.11990   0.63780   0.01267  Uiso   1.00
H11    H     0.34250   0.30850   0.51900   0.01267  Uiso   1.00
H12    H     0.17020   0.45610   0.52580   0.01267  Uiso   1.00
H13    H     0.82660   0.48710   0.08610   0.01267  Uiso   1.00
H14    H     0.93900   0.31370   0.10810   0.01267  Uiso   1.00
H15    H     0.78850   0.09770   0.20130   0.01267  Uiso   1.00
H16    H     0.15230   0.39170   0.27240   0.01267  Uiso   1.00
H17    H     0.99200   0.18290   0.37040   0.01267  Uiso   1.00
H18    H     0.08720   0.99490   0.39230   0.01267  Uiso   1.00
H19    H     0.22860   0.54620   0.03520   0.01267  Uiso   1.00
H20    H     0.08530   0.70010   0.04500   0.01267  Uiso   1.00
H21    H     0.17200   0.88520   0.18810   0.01267  Uiso   1.00
H22    H     0.77680   0.61990   0.36220   0.01267  Uiso   1.00
H23    H     0.84250   0.80850   0.48100   0.01267  Uiso   1.00
H24    H     0.67020   0.95610   0.47420   0.01267  Uiso   1.00
C1     C     0.04430   0.74840   0.78220   0.01267  Uiso   1.00
C2     C     0.66840   0.20900   0.90740   0.01267  Uiso   1.00
C3     C     0.88260   0.72550   0.73870   0.01267  Uiso   1.00
C4     C     0.70810   0.31080   0.83160   0.01267  Uiso   1.00
C5     C     0.65190   0.58380   0.64560   0.01267  Uiso   1.00
C6     C     0.24480   0.67010   0.80810   0.01267  Uiso   1.00
C7     C     0.89810   0.22990   0.77420   0.01267  Uiso   1.00
C8     C     0.02530   0.24800   0.69960   0.01267  Uiso   1.00
C9     C     0.68980   0.81530   0.71630   0.01267  Uiso   1.00
C10    C     0.21840   0.18190   0.63710   0.01267  Uiso   1.00
C11    C     0.75190   0.11660   0.91200   0.01267  Uiso   1.00
C12    C     0.25660   0.29250   0.56630   0.01267  Uiso   1.00
C13    C     0.59480   0.69370   0.65920   0.01267  Uiso   1.00
C14    C     0.16990   0.37570   0.56540   0.01267  Uiso   1.00
C15    C     0.33400   0.79710   0.86250   0.01267  Uiso   1.00
C16    C     0.26760   0.89780   0.87520   0.01267  Uiso   1.00
C17    C     0.54430   0.24840   0.21780   0.01267  Uiso   1.00
C18    C     0.16840   0.70900   0.09260   0.01267  Uiso   1.00
C19    C     0.38260   0.22550   0.26130   0.01267  Uiso   1.00
C20    C     0.20810   0.81080   0.16840   0.01267  Uiso   1.00
C21    C     0.15190   0.08380   0.35440   0.01267  Uiso   1.00
C22    C     0.74480   0.17010   0.19190   0.01267  Uiso   1.00
C23    C     0.39810   0.72990   0.22580   0.01267  Uiso   1.00
C24    C     0.52530   0.74800   0.30040   0.01267  Uiso   1.00
C25    C     0.18980   0.31530   0.28370   0.01267  Uiso   1.00
C26    C     0.71840   0.68190   0.36290   0.01267  Uiso   1.00
C27    C     0.25190   0.61660   0.08800   0.01267  Uiso   1.00
C28    C     0.75660   0.79250   0.43370   0.01267  Uiso   1.00
C29    C     0.09480   0.19370   0.34080   0.01267  Uiso   1.00
C30    C     0.66990   0.87570   0.43460   0.01267  Uiso   1.00
C31    C     0.83400   0.29710   0.13750   0.01267  Uiso   1.00
C32    C     0.76760   0.39780   0.12480   0.01267  Uiso   1.00
S1     S     0.22800   0.20150   0.02080   0.01267  Uiso   1.00
S2     S     0.72800   0.70150   0.97920   0.01267  Uiso   1.00
N1     N     0.12130   0.87530   0.83350   0.01267  Uiso   1.00
N2     N     0.09760   0.64390   0.76680   0.01267  Uiso   1.00
N3     N     0.83390   0.83160   0.75690   0.01267  Uiso   1.00
N4     N     0.79860   0.60310   0.68440   0.01267  Uiso   1.00
N5     N     0.86610   0.12700   0.84440   0.01267  Uiso   1.00
N6     N     0.82310   0.32040   0.76510   0.01267  Uiso   1.00
N7     N     0.09970   0.15710   0.70350   0.01267  Uiso   1.00
N8     N     0.05380   0.35530   0.63320   0.01267  Uiso   1.00
N9     N     0.62130   0.37530   0.16650   0.01267  Uiso   1.00
N10    N     0.59760   0.14390   0.23320   0.01267  Uiso   1.00
N11    N     0.33390   0.33160   0.24310   0.01267  Uiso   1.00
N12    N     0.29860   0.10310   0.31560   0.01267  Uiso   1.00
N13    N     0.36610   0.62700   0.15560   0.01267  Uiso   1.00
N14    N     0.32310   0.82040   0.23490   0.01267  Uiso   1.00
N15    N     0.59970   0.65710   0.29650   0.01267  Uiso   1.00
N16    N     0.55380   0.85530   0.36680   0.01267  Uiso   1.00
O1     O     0.18720   0.16440   0.91480   0.01267  Uiso   1.00
O2     O     0.34590   0.36200   0.02370   0.01267  Uiso   1.00
O3     O     0.30540   0.10860   0.05840   0.01267  Uiso   1.00
O4     O     0.07430   0.17280   0.07250   0.01267  Uiso   1.00
O5     O     0.68720   0.66440   0.08520   0.01267  Uiso   1.00
O6     O     0.84590   0.86200   0.97630   0.01267  Uiso   1.00
O7     O     0.80540   0.60860   0.94160   0.01267  Uiso   1.00
O8     O     0.57430   0.67280   0.92750   0.01267  Uiso   1.00
