data_PEBXIF_clean
_audit_creation_date              2014-07-02
_audit_creation_method            'Materials Studio'
_symmetry_space_group_name_H-M    'P1'
_symmetry_Int_Tables_number       1
_symmetry_cell_setting            triclinic
loop_
_symmetry_equiv_pos_as_xyz
  x,y,z
_cell_length_a                    13.6212
_cell_length_b                    13.6212
_cell_length_c                    15.5742
_cell_angle_alpha                 70.2154
_cell_angle_beta                  69.2953
_cell_angle_gamma                 102.0480
loop_
_atom_site_label
_atom_site_type_symbol
_atom_site_fract_x
_atom_site_fract_y
_atom_site_fract_z
_atom_site_U_iso_or_equiv
_atom_site_adp_type
_atom_site_occupancy
Ni1    Ni    0.42263   0.51476   0.28393   0.01267  Uiso   1.00
Ni2    Ni    0.29869   0.70656   0.21607   0.01267  Uiso   1.00
H1     H     0.19060   0.41930   0.37090   0.01267  Uiso   1.00
H2     H     0.66040   0.54540   0.15000   0.01267  Uiso   1.00
H3     H     0.83550   0.58480   0.14230   0.01267  Uiso   1.00
H4     H     0.69170   0.50730   0.44160   0.01267  Uiso   1.00
H5     H     0.51820   0.46740   0.44240   0.01267  Uiso   1.00
H6     H     0.97590   0.71920   0.14010   0.01267  Uiso   1.00
H7     H     0.15240   0.77160   0.12460   0.01267  Uiso   1.00
H8     H     0.05350   0.53330   0.39740   0.01267  Uiso   1.00
H9     H     0.86960   0.47820   0.42420   0.01267  Uiso   1.00
H10    H     0.99820   0.20360   0.59860   0.01267  Uiso   1.00
H11    H     0.91240   0.06980   0.76840   0.01267  Uiso   1.00
H12    H     0.21140   0.14180   0.77060   0.01267  Uiso   1.00
H13    H     0.29850   0.27320   0.59790   0.01267  Uiso   1.00
H14    H     0.84420   0.05430   0.01350   0.01267  Uiso   1.00
H15    H     0.65370   0.93640   0.10730   0.01267  Uiso   1.00
H16    H     0.72470   0.71980   0.99650   0.01267  Uiso   1.00
H17    H     0.91440   0.84220   0.89820   0.01267  Uiso   1.00
H18    H     0.29020   0.56150   0.12910   0.01267  Uiso   1.00
H19    H     0.19540   0.81040   0.35000   0.01267  Uiso   1.00
H20    H     0.22710   0.97780   0.35770   0.01267  Uiso   1.00
H21    H     0.44890   0.13330   0.05840   0.01267  Uiso   1.00
H22    H     0.40980   0.96060   0.05760   0.01267  Uiso   1.00
H23    H     0.35930   0.11600   0.35990   0.01267  Uiso   1.00
H24    H     0.39620   0.27700   0.37540   0.01267  Uiso   1.00
H25    H     0.43070   0.45090   0.10260   0.01267  Uiso   1.00
H26    H     0.40240   0.29380   0.07580   0.01267  Uiso   1.00
H27    H     0.30220   0.59680   0.90140   0.01267  Uiso   1.00
H28    H     0.33820   0.68080   0.73160   0.01267  Uiso   1.00
H29    H     0.41240   0.98200   0.72940   0.01267  Uiso   1.00
H30    H     0.37110   0.89640   0.90210   0.01267  Uiso   1.00
H31    H     0.56780   0.85770   0.48650   0.01267  Uiso   1.00
H32    H     0.54370   0.76100   0.39270   0.01267  Uiso   1.00
H33    H     0.21630   0.72120   0.50350   0.01267  Uiso   1.00
H34    H     0.24040   0.81260   0.60180   0.01267  Uiso   1.00
C1     C     0.66650   0.53920   0.20910   0.01267  Uiso   1.00
C2     C     0.77230   0.56300   0.20390   0.01267  Uiso   1.00
C3     C     0.78480   0.55460   0.29100   0.01267  Uiso   1.00
C4     C     0.68770   0.51700   0.38110   0.01267  Uiso   1.00
C5     C     0.58290   0.49360   0.38090   0.01267  Uiso   1.00
C6     C     0.89980   0.58840   0.28360   0.01267  Uiso   1.00
C7     C     0.98930   0.67950   0.19360   0.01267  Uiso   1.00
C8     C     0.09530   0.71000   0.18450   0.01267  Uiso   1.00
C9     C     0.03750   0.57090   0.34500   0.01267  Uiso   1.00
C10    C     0.92620   0.53620   0.36140   0.01267  Uiso   1.00
C11    C     0.21200   0.34570   0.47230   0.01267  Uiso   1.00
C12    C     0.15700   0.25420   0.58040   0.01267  Uiso   1.00
C13    C     0.04160   0.19180   0.63280   0.01267  Uiso   1.00
C14    C     0.98960   0.11210   0.73510   0.01267  Uiso   1.00
C15    C     0.05280   0.09620   0.78640   0.01267  Uiso   1.00
C16    C     0.16850   0.15470   0.73600   0.01267  Uiso   1.00
C17    C     0.22070   0.23390   0.63220   0.01267  Uiso   1.00
C18    C     0.89500   0.96050   0.94630   0.01267  Uiso   1.00
C19    C     0.81990   0.98810   0.00880   0.01267  Uiso   1.00
C20    C     0.70560   0.91640   0.06620   0.01267  Uiso   1.00
C21    C     0.66960   0.81620   0.06220   0.01267  Uiso   1.00
C22    C     0.74780   0.78740   0.99940   0.01267  Uiso   1.00
C23    C     0.86180   0.86060   0.94060   0.01267  Uiso   1.00
C24    C     0.54680   0.73910   0.12250   0.01267  Uiso   1.00
C25    C     0.24830   0.87560   0.29090   0.01267  Uiso   1.00
C26    C     0.26690   0.97620   0.29610   0.01267  Uiso   1.00
C27    C     0.34560   0.07580   0.20900   0.01267  Uiso   1.00
C28    C     0.39810   0.06880   0.11890   0.01267  Uiso   1.00
C29    C     0.37450   0.96380   0.11910   0.01267  Uiso   1.00
C30    C     0.37200   0.18340   0.21640   0.01267  Uiso   1.00
C31    C     0.37310   0.18290   0.30640   0.01267  Uiso   1.00
C32    C     0.39450   0.27980   0.31550   0.01267  Uiso   1.00
C33    C     0.41590   0.38250   0.15500   0.01267  Uiso   1.00
C34    C     0.39760   0.28760   0.13860   0.01267  Uiso   1.00
C35    C     0.31800   0.68430   0.02770   0.01267  Uiso   1.00
C36    C     0.33460   0.73740   0.91960   0.01267  Uiso   1.00
C37    C     0.32460   0.67440   0.86720   0.01267  Uiso   1.00
C38    C     0.34720   0.72470   0.76490   0.01267  Uiso   1.00
C39    C     0.38260   0.83920   0.71360   0.01267  Uiso   1.00
C40    C     0.39070   0.90450   0.76400   0.01267  Uiso   1.00
C41    C     0.36610   0.85290   0.86780   0.01267  Uiso   1.00
C42    C     0.40680   0.84130   0.55370   0.01267  Uiso   1.00
C43    C     0.49690   0.82870   0.49120   0.01267  Uiso   1.00
C44    C     0.48260   0.77180   0.43380   0.01267  Uiso   1.00
C45    C     0.37840   0.73180   0.43780   0.01267  Uiso   1.00
C46    C     0.28680   0.74720   0.50060   0.01267  Uiso   1.00
C47    C     0.30120   0.80240   0.55940   0.01267  Uiso   1.00
C48    C     0.36160   0.66930   0.37750   0.01267  Uiso   1.00
N1     N     0.57159   0.50711   0.29560   0.01267  Uiso   1.00
N2     N     0.12245   0.65533   0.25810   0.01267  Uiso   1.00
N3     N     0.30271   0.86719   0.20440   0.01267  Uiso   1.00
N4     N     0.41343   0.38055   0.24190   0.01267  Uiso   1.00
O1     O     0.31712   0.39905   0.43227   0.01267  Uiso   1.00
O2     O     0.15175   0.36507   0.42770   0.01267  Uiso   1.00
O3     O     0.00730   0.03100   0.89090   0.01267  Uiso   1.00
O4     O     0.52563   0.63911   0.13640   0.01267  Uiso   1.00
O5     O     0.47513   0.78069   0.15290   0.01267  Uiso   1.00
O6     O     0.33132   0.74939   0.06773   0.01267  Uiso   1.00
O7     O     0.29277   0.57945   0.07230   0.01267  Uiso   1.00
O8     O     0.42190   0.89820   0.60910   0.01267  Uiso   1.00
O9     O     0.27551   0.66203   0.36360   0.01267  Uiso   1.00
O10    O     0.43359   0.62803   0.34710   0.01267  Uiso   1.00
O11    O     0.28840   0.53840   0.25000   0.01267  Uiso   1.00
Ni3    Ni    0.57737   0.48524   0.71607   0.01267  Uiso   1.00
Ni4    Ni    0.70131   0.29344   0.78393   0.01267  Uiso   1.00
H35    H     0.80940   0.58070   0.62910   0.01267  Uiso   1.00
H36    H     0.33960   0.45460   0.85000   0.01267  Uiso   1.00
H37    H     0.16450   0.41520   0.85770   0.01267  Uiso   1.00
H38    H     0.30830   0.49270   0.55840   0.01267  Uiso   1.00
H39    H     0.48180   0.53260   0.55760   0.01267  Uiso   1.00
H40    H     0.02410   0.28080   0.85990   0.01267  Uiso   1.00
H41    H     0.84760   0.22840   0.87540   0.01267  Uiso   1.00
H42    H     0.94650   0.46670   0.60260   0.01267  Uiso   1.00
H43    H     0.13040   0.52180   0.57580   0.01267  Uiso   1.00
H44    H     0.00180   0.79640   0.40140   0.01267  Uiso   1.00
H45    H     0.08760   0.93020   0.23160   0.01267  Uiso   1.00
H46    H     0.78860   0.85820   0.22940   0.01267  Uiso   1.00
H47    H     0.70150   0.72680   0.40210   0.01267  Uiso   1.00
H48    H     0.15580   0.94570   0.98650   0.01267  Uiso   1.00
H49    H     0.34630   0.06360   0.89270   0.01267  Uiso   1.00
H50    H     0.27530   0.28020   0.00350   0.01267  Uiso   1.00
H51    H     0.08560   0.15780   0.10180   0.01267  Uiso   1.00
H52    H     0.70980   0.43850   0.87090   0.01267  Uiso   1.00
H53    H     0.80460   0.18960   0.65000   0.01267  Uiso   1.00
H54    H     0.77290   0.02220   0.64230   0.01267  Uiso   1.00
H55    H     0.55110   0.86670   0.94160   0.01267  Uiso   1.00
H56    H     0.59020   0.03940   0.94240   0.01267  Uiso   1.00
H57    H     0.64070   0.88400   0.64010   0.01267  Uiso   1.00
H58    H     0.60380   0.72300   0.62460   0.01267  Uiso   1.00
H59    H     0.56930   0.54910   0.89740   0.01267  Uiso   1.00
H60    H     0.59760   0.70620   0.92420   0.01267  Uiso   1.00
H61    H     0.69780   0.40320   0.09860   0.01267  Uiso   1.00
H62    H     0.66180   0.31920   0.26840   0.01267  Uiso   1.00
H63    H     0.58760   0.01800   0.27060   0.01267  Uiso   1.00
H64    H     0.62890   0.10360   0.09790   0.01267  Uiso   1.00
H65    H     0.43220   0.14230   0.51350   0.01267  Uiso   1.00
H66    H     0.45630   0.23900   0.60730   0.01267  Uiso   1.00
H67    H     0.78370   0.27880   0.49650   0.01267  Uiso   1.00
H68    H     0.75960   0.18740   0.39820   0.01267  Uiso   1.00
C49    C     0.33350   0.46080   0.79090   0.01267  Uiso   1.00
C50    C     0.22770   0.43700   0.79610   0.01267  Uiso   1.00
C51    C     0.21520   0.44540   0.70900   0.01267  Uiso   1.00
C52    C     0.31230   0.48300   0.61890   0.01267  Uiso   1.00
C53    C     0.41710   0.50640   0.61910   0.01267  Uiso   1.00
C54    C     0.10020   0.41160   0.71640   0.01267  Uiso   1.00
C55    C     0.01070   0.32050   0.80640   0.01267  Uiso   1.00
C56    C     0.90470   0.29000   0.81550   0.01267  Uiso   1.00
C57    C     0.96250   0.42910   0.65500   0.01267  Uiso   1.00
C58    C     0.07380   0.46380   0.63860   0.01267  Uiso   1.00
C59    C     0.78800   0.65430   0.52770   0.01267  Uiso   1.00
C60    C     0.84300   0.74580   0.41960   0.01267  Uiso   1.00
C61    C     0.95840   0.80820   0.36720   0.01267  Uiso   1.00
C62    C     0.01040   0.88790   0.26490   0.01267  Uiso   1.00
C63    C     0.94720   0.90380   0.21360   0.01267  Uiso   1.00
C64    C     0.83150   0.84530   0.26400   0.01267  Uiso   1.00
C65    C     0.77930   0.76610   0.36780   0.01267  Uiso   1.00
C66    C     0.10500   0.03950   0.05370   0.01267  Uiso   1.00
C67    C     0.18010   0.01190   0.99120   0.01267  Uiso   1.00
C68    C     0.29440   0.08360   0.93380   0.01267  Uiso   1.00
C69    C     0.33040   0.18380   0.93780   0.01267  Uiso   1.00
C70    C     0.25220   0.21260   0.00060   0.01267  Uiso   1.00
C71    C     0.13820   0.13940   0.05940   0.01267  Uiso   1.00
C72    C     0.45320   0.26090   0.87750   0.01267  Uiso   1.00
C73    C     0.75170   0.12440   0.70910   0.01267  Uiso   1.00
C74    C     0.73310   0.02380   0.70390   0.01267  Uiso   1.00
C75    C     0.65440   0.92420   0.79100   0.01267  Uiso   1.00
C76    C     0.60190   0.93120   0.88110   0.01267  Uiso   1.00
C77    C     0.62550   0.03620   0.88090   0.01267  Uiso   1.00
C78    C     0.62800   0.81660   0.78360   0.01267  Uiso   1.00
C79    C     0.62690   0.81710   0.69360   0.01267  Uiso   1.00
C80    C     0.60550   0.72020   0.68450   0.01267  Uiso   1.00
C81    C     0.58410   0.61750   0.84500   0.01267  Uiso   1.00
C82    C     0.60240   0.71240   0.86140   0.01267  Uiso   1.00
C83    C     0.68200   0.31570   0.97230   0.01267  Uiso   1.00
C84    C     0.66540   0.26260   0.08040   0.01267  Uiso   1.00
C85    C     0.67540   0.32560   0.13280   0.01267  Uiso   1.00
C86    C     0.65280   0.27530   0.23510   0.01267  Uiso   1.00
C87    C     0.61740   0.16080   0.28640   0.01267  Uiso   1.00
C88    C     0.60930   0.09550   0.23600   0.01267  Uiso   1.00
C89    C     0.63390   0.14710   0.13220   0.01267  Uiso   1.00
C90    C     0.59320   0.15870   0.44630   0.01267  Uiso   1.00
C91    C     0.50310   0.17130   0.50880   0.01267  Uiso   1.00
C92    C     0.51740   0.22820   0.56620   0.01267  Uiso   1.00
C93    C     0.62160   0.26820   0.56220   0.01267  Uiso   1.00
C94    C     0.71320   0.25280   0.49940   0.01267  Uiso   1.00
C95    C     0.69880   0.19760   0.44060   0.01267  Uiso   1.00
C96    C     0.63840   0.33070   0.62250   0.01267  Uiso   1.00
N5     N     0.42841   0.49289   0.70440   0.01267  Uiso   1.00
N6     N     0.87755   0.34467   0.74190   0.01267  Uiso   1.00
N7     N     0.69729   0.13281   0.79560   0.01267  Uiso   1.00
N8     N     0.58657   0.61945   0.75810   0.01267  Uiso   1.00
O12    O     0.68288   0.60095   0.56773   0.01267  Uiso   1.00
O13    O     0.84825   0.63493   0.57230   0.01267  Uiso   1.00
O14    O     0.99270   0.96900   0.10910   0.01267  Uiso   1.00
O15    O     0.47437   0.36089   0.86360   0.01267  Uiso   1.00
O16    O     0.52487   0.21931   0.84710   0.01267  Uiso   1.00
O17    O     0.66868   0.25061   0.93227   0.01267  Uiso   1.00
O18    O     0.70723   0.42055   0.92770   0.01267  Uiso   1.00
O19    O     0.57810   0.10180   0.39090   0.01267  Uiso   1.00
O20    O     0.72449   0.33797   0.63640   0.01267  Uiso   1.00
O21    O     0.56641   0.37197   0.65290   0.01267  Uiso   1.00
O22    O     0.71160   0.46160   0.75000   0.01267  Uiso   1.00
