data_PEGBEK02_clean
_audit_creation_date              2014-07-02
_audit_creation_method            'Materials Studio'
_symmetry_space_group_name_H-M    'P1'
_symmetry_Int_Tables_number       1
_symmetry_cell_setting            triclinic
loop_
_symmetry_equiv_pos_as_xyz
  x,y,z
_cell_length_a                    10.6650
_cell_length_b                    12.4195
_cell_length_c                    17.1416
_cell_angle_alpha                 90.0000
_cell_angle_beta                  95.3800
_cell_angle_gamma                 90.0000
loop_
_atom_site_label
_atom_site_type_symbol
_atom_site_fract_x
_atom_site_fract_y
_atom_site_fract_z
_atom_site_U_iso_or_equiv
_atom_site_adp_type
_atom_site_occupancy
Zn1    Zn    0.27401   0.26479   0.39881   0.01267  Uiso   1.00
Zn2    Zn    0.79362   0.25658   0.54374   0.01267  Uiso   1.00
Zn3    Zn    0.22599   0.76479   0.10119   0.01267  Uiso   1.00
Zn4    Zn    0.70638   0.75658   0.95626   0.01267  Uiso   1.00
Zn5    Zn    0.72599   0.73521   0.60119   0.01267  Uiso   1.00
Zn6    Zn    0.20638   0.74342   0.45626   0.01267  Uiso   1.00
Zn7    Zn    0.77401   0.23521   0.89881   0.01267  Uiso   1.00
Zn8    Zn    0.29362   0.24342   0.04374   0.01267  Uiso   1.00
H1     H     0.93350   0.36180   0.78610   0.01267  Uiso   1.00
H2     H     0.99010   0.31800   0.71110   0.01267  Uiso   1.00
H3     H     0.88500   0.40670   0.70320   0.01267  Uiso   1.00
H4     H     0.52140   0.05850   0.64300   0.01267  Uiso   1.00
H5     H     0.64040   0.01900   0.60430   0.01267  Uiso   1.00
H6     H     0.53200   0.31630   0.33820   0.01267  Uiso   1.00
H7     H     0.63940   0.36270   0.39750   0.01267  Uiso   1.00
H8     H     0.66240   0.25750   0.35040   0.01267  Uiso   1.00
H9     H     0.98330   0.00760   0.32940   0.01267  Uiso   1.00
H10    H     0.06890   0.09410   0.29400   0.01267  Uiso   1.00
H11    H     0.12820   0.01070   0.35540   0.01267  Uiso   1.00
H12    H     0.04670   0.36740   0.57320   0.01267  Uiso   1.00
H13    H     0.17540   0.30590   0.58180   0.01267  Uiso   1.00
H14    H     0.38150   0.61310   0.36260   0.01267  Uiso   1.00
H15    H     0.46340   0.51450   0.39370   0.01267  Uiso   1.00
H16    H     0.35970   0.49980   0.32340   0.01267  Uiso   1.00
H17    H     0.56650   0.86180   0.71390   0.01267  Uiso   1.00
H18    H     0.50990   0.81800   0.78890   0.01267  Uiso   1.00
H19    H     0.61500   0.90670   0.79680   0.01267  Uiso   1.00
H20    H     0.97860   0.55850   0.85700   0.01267  Uiso   1.00
H21    H     0.85960   0.51900   0.89570   0.01267  Uiso   1.00
H22    H     0.96800   0.81630   0.16180   0.01267  Uiso   1.00
H23    H     0.86060   0.86270   0.10250   0.01267  Uiso   1.00
H24    H     0.83760   0.75750   0.14960   0.01267  Uiso   1.00
H25    H     0.51670   0.50760   0.17060   0.01267  Uiso   1.00
H26    H     0.43110   0.59410   0.20600   0.01267  Uiso   1.00
H27    H     0.37180   0.51070   0.14460   0.01267  Uiso   1.00
H28    H     0.45330   0.86740   0.92680   0.01267  Uiso   1.00
H29    H     0.32460   0.80590   0.91820   0.01267  Uiso   1.00
H30    H     0.11850   0.11310   0.13740   0.01267  Uiso   1.00
H31    H     0.03660   0.01450   0.10630   0.01267  Uiso   1.00
H32    H     0.14030   0.99980   0.17660   0.01267  Uiso   1.00
H33    H     0.06650   0.63820   0.21390   0.01267  Uiso   1.00
H34    H     0.00990   0.68200   0.28890   0.01267  Uiso   1.00
H35    H     0.11500   0.59330   0.29680   0.01267  Uiso   1.00
H36    H     0.47860   0.94150   0.35700   0.01267  Uiso   1.00
H37    H     0.35960   0.98100   0.39570   0.01267  Uiso   1.00
H38    H     0.46800   0.68370   0.66180   0.01267  Uiso   1.00
H39    H     0.36060   0.63730   0.60250   0.01267  Uiso   1.00
H40    H     0.33760   0.74250   0.64960   0.01267  Uiso   1.00
H41    H     0.01670   0.99240   0.67060   0.01267  Uiso   1.00
H42    H     0.93110   0.90590   0.70600   0.01267  Uiso   1.00
H43    H     0.87180   0.98930   0.64460   0.01267  Uiso   1.00
H44    H     0.95330   0.63260   0.42680   0.01267  Uiso   1.00
H45    H     0.82460   0.69410   0.41820   0.01267  Uiso   1.00
H46    H     0.61850   0.38690   0.63740   0.01267  Uiso   1.00
H47    H     0.53660   0.48550   0.60630   0.01267  Uiso   1.00
H48    H     0.64030   0.50020   0.67660   0.01267  Uiso   1.00
H49    H     0.43350   0.13820   0.28610   0.01267  Uiso   1.00
H50    H     0.49010   0.18200   0.21110   0.01267  Uiso   1.00
H51    H     0.38500   0.09330   0.20320   0.01267  Uiso   1.00
H52    H     0.02140   0.44150   0.14300   0.01267  Uiso   1.00
H53    H     0.14040   0.48100   0.10430   0.01267  Uiso   1.00
H54    H     0.03200   0.18370   0.83820   0.01267  Uiso   1.00
H55    H     0.13940   0.13730   0.89750   0.01267  Uiso   1.00
H56    H     0.16240   0.24250   0.85040   0.01267  Uiso   1.00
H57    H     0.48330   0.49240   0.82940   0.01267  Uiso   1.00
H58    H     0.56890   0.40590   0.79400   0.01267  Uiso   1.00
H59    H     0.62820   0.48930   0.85540   0.01267  Uiso   1.00
H60    H     0.54670   0.13260   0.07320   0.01267  Uiso   1.00
H61    H     0.67540   0.19410   0.08180   0.01267  Uiso   1.00
H62    H     0.88150   0.88690   0.86260   0.01267  Uiso   1.00
H63    H     0.96340   0.98550   0.89370   0.01267  Uiso   1.00
H64    H     0.85970   0.00020   0.82340   0.01267  Uiso   1.00
C1     C     0.91500   0.34380   0.73177   0.01267  Uiso   1.00
C2     C     0.81660   0.25839   0.72381   0.01267  Uiso   1.00
C3     C     0.67690   0.14820   0.67556   0.01267  Uiso   1.00
C4     C     0.59420   0.08250   0.61789   0.01267  Uiso   1.00
C5     C     0.54950   0.14109   0.54404   0.01267  Uiso   1.00
C6     C     0.55450   0.23226   0.43956   0.01267  Uiso   1.00
C7     C     0.60120   0.29800   0.37576   0.01267  Uiso   1.00
C8     C     0.05510   0.05370   0.34020   0.01267  Uiso   1.00
C9     C     0.03210   0.12880   0.40470   0.01267  Uiso   1.00
C10    C     0.05710   0.25114   0.49164   0.01267  Uiso   1.00
C11    C     0.11240   0.33760   0.54418   0.01267  Uiso   1.00
C12    C     0.17190   0.42720   0.50267   0.01267  Uiso   1.00
C13    C     0.28630   0.51080   0.42829   0.01267  Uiso   1.00
C14    C     0.38130   0.53690   0.37191   0.01267  Uiso   1.00
C15    C     0.58500   0.84380   0.76823   0.01267  Uiso   1.00
C16    C     0.68340   0.75839   0.77619   0.01267  Uiso   1.00
C17    C     0.82310   0.64820   0.82444   0.01267  Uiso   1.00
C18    C     0.90580   0.58250   0.88211   0.01267  Uiso   1.00
C19    C     0.95050   0.64109   0.95596   0.01267  Uiso   1.00
C20    C     0.94550   0.73226   0.06044   0.01267  Uiso   1.00
C21    C     0.89880   0.79800   0.12424   0.01267  Uiso   1.00
C22    C     0.44490   0.55370   0.15980   0.01267  Uiso   1.00
C23    C     0.46790   0.62880   0.09530   0.01267  Uiso   1.00
C24    C     0.44290   0.75114   0.00836   0.01267  Uiso   1.00
C25    C     0.38760   0.83760   0.95582   0.01267  Uiso   1.00
C26    C     0.32810   0.92720   0.99733   0.01267  Uiso   1.00
C27    C     0.21370   0.01080   0.07171   0.01267  Uiso   1.00
C28    C     0.11870   0.03690   0.12809   0.01267  Uiso   1.00
C29    C     0.08500   0.65620   0.26823   0.01267  Uiso   1.00
C30    C     0.18340   0.74161   0.27619   0.01267  Uiso   1.00
C31    C     0.32310   0.85180   0.32444   0.01267  Uiso   1.00
C32    C     0.40580   0.91750   0.38211   0.01267  Uiso   1.00
C33    C     0.45050   0.85891   0.45596   0.01267  Uiso   1.00
C34    C     0.44550   0.76774   0.56044   0.01267  Uiso   1.00
C35    C     0.39880   0.70200   0.62424   0.01267  Uiso   1.00
C36    C     0.94490   0.94630   0.65980   0.01267  Uiso   1.00
C37    C     0.96790   0.87120   0.59530   0.01267  Uiso   1.00
C38    C     0.94290   0.74886   0.50836   0.01267  Uiso   1.00
C39    C     0.88760   0.66240   0.45582   0.01267  Uiso   1.00
C40    C     0.82810   0.57280   0.49733   0.01267  Uiso   1.00
C41    C     0.71370   0.48920   0.57171   0.01267  Uiso   1.00
C42    C     0.61870   0.46310   0.62809   0.01267  Uiso   1.00
C43    C     0.41500   0.15620   0.23177   0.01267  Uiso   1.00
C44    C     0.31660   0.24161   0.22381   0.01267  Uiso   1.00
C45    C     0.17690   0.35180   0.17556   0.01267  Uiso   1.00
C46    C     0.09420   0.41750   0.11789   0.01267  Uiso   1.00
C47    C     0.04950   0.35891   0.04404   0.01267  Uiso   1.00
C48    C     0.05450   0.26774   0.93956   0.01267  Uiso   1.00
C49    C     0.10120   0.20200   0.87576   0.01267  Uiso   1.00
C50    C     0.55510   0.44630   0.84020   0.01267  Uiso   1.00
C51    C     0.53210   0.37120   0.90470   0.01267  Uiso   1.00
C52    C     0.55710   0.24886   0.99164   0.01267  Uiso   1.00
C53    C     0.61240   0.16240   0.04418   0.01267  Uiso   1.00
C54    C     0.67190   0.07280   0.00267   0.01267  Uiso   1.00
C55    C     0.78630   0.98920   0.92829   0.01267  Uiso   1.00
C56    C     0.88130   0.96310   0.87191   0.01267  Uiso   1.00
N1     N     0.11730   0.20276   0.43593   0.01267  Uiso   1.00
N2     N     0.92620   0.13005   0.43841   0.01267  Uiso   1.00
N3     N     0.94294   0.21021   0.49477   0.01267  Uiso   1.00
N4     N     0.25635   0.41061   0.44882   0.01267  Uiso   1.00
N5     N     0.15009   0.52950   0.51517   0.01267  Uiso   1.00
N6     N     0.22460   0.58344   0.46569   0.01267  Uiso   1.00
N7     N     0.43536   0.20254   0.44458   0.01267  Uiso   1.00
N8     N     0.43172   0.14333   0.51321   0.01267  Uiso   1.00
N9     N     0.62957   0.19467   0.50055   0.01267  Uiso   1.00
N10    N     0.76907   0.21642   0.65509   0.01267  Uiso   1.00
N11    N     0.66900   0.14517   0.75130   0.01267  Uiso   1.00
N12    N     0.76050   0.21714   0.78249   0.01267  Uiso   1.00
N13    N     0.38270   0.70276   0.06407   0.01267  Uiso   1.00
N14    N     0.57380   0.63005   0.06159   0.01267  Uiso   1.00
N15    N     0.55706   0.71021   0.00523   0.01267  Uiso   1.00
N16    N     0.24365   0.91061   0.05118   0.01267  Uiso   1.00
N17    N     0.34991   0.02950   0.98483   0.01267  Uiso   1.00
N18    N     0.27540   0.08344   0.03431   0.01267  Uiso   1.00
N19    N     0.06464   0.70254   0.05542   0.01267  Uiso   1.00
N20    N     0.06828   0.64333   0.98679   0.01267  Uiso   1.00
N21    N     0.87043   0.69467   0.99945   0.01267  Uiso   1.00
N22    N     0.73093   0.71642   0.84491   0.01267  Uiso   1.00
N23    N     0.83100   0.64517   0.74870   0.01267  Uiso   1.00
N24    N     0.73950   0.71714   0.71751   0.01267  Uiso   1.00
N25    N     0.88270   0.79724   0.56407   0.01267  Uiso   1.00
N26    N     0.07380   0.86995   0.56159   0.01267  Uiso   1.00
N27    N     0.05706   0.78979   0.50523   0.01267  Uiso   1.00
N28    N     0.74365   0.58939   0.55118   0.01267  Uiso   1.00
N29    N     0.84991   0.47050   0.48483   0.01267  Uiso   1.00
N30    N     0.77540   0.41656   0.53431   0.01267  Uiso   1.00
N31    N     0.56464   0.79746   0.55542   0.01267  Uiso   1.00
N32    N     0.56828   0.85667   0.48679   0.01267  Uiso   1.00
N33    N     0.37043   0.80533   0.49945   0.01267  Uiso   1.00
N34    N     0.23093   0.78358   0.34491   0.01267  Uiso   1.00
N35    N     0.33100   0.85483   0.24870   0.01267  Uiso   1.00
N36    N     0.23950   0.78286   0.21751   0.01267  Uiso   1.00
N37    N     0.61730   0.29724   0.93593   0.01267  Uiso   1.00
N38    N     0.42620   0.36995   0.93841   0.01267  Uiso   1.00
N39    N     0.44294   0.28979   0.99477   0.01267  Uiso   1.00
N40    N     0.75635   0.08939   0.94882   0.01267  Uiso   1.00
N41    N     0.65009   0.97050   0.01517   0.01267  Uiso   1.00
N42    N     0.72460   0.91656   0.96569   0.01267  Uiso   1.00
N43    N     0.93536   0.29746   0.94458   0.01267  Uiso   1.00
N44    N     0.93172   0.35667   0.01321   0.01267  Uiso   1.00
N45    N     0.12957   0.30533   0.00055   0.01267  Uiso   1.00
N46    N     0.26907   0.28358   0.15509   0.01267  Uiso   1.00
N47    N     0.16900   0.35483   0.25130   0.01267  Uiso   1.00
N48    N     0.26050   0.28286   0.28249   0.01267  Uiso   1.00
