data_PEJPOL_charged
_audit_creation_date              2014-07-02
_audit_creation_method            'Materials Studio'
_symmetry_space_group_name_H-M    'P1'
_symmetry_Int_Tables_number       1
_symmetry_cell_setting            triclinic
loop_
_symmetry_equiv_pos_as_xyz
  x,y,z
_cell_length_a                    14.8574
_cell_length_b                    14.8574
_cell_length_c                    17.2174
_cell_angle_alpha                 96.5128
_cell_angle_beta                  109.9270
_cell_angle_gamma                 118.2680
loop_
_atom_site_label
_atom_site_type_symbol
_atom_site_fract_x
_atom_site_fract_y
_atom_site_fract_z
_atom_site_U_iso_or_equiv
_atom_site_adp_type
_atom_site_occupancy
Zn1    Zn    0.11780   0.37610   0.63862   0.01267  Uiso   1.00
Zn2    Zn    0.78433   0.93976   0.02083   0.01267  Uiso   1.00
Zn3    Zn    0.23748   0.47918   0.86138   0.01267  Uiso   1.00
Zn4    Zn    0.41893   0.76350   0.47917   0.01267  Uiso   1.00
Zn5    Zn    0.88220   0.62390   0.36138   0.01267  Uiso   1.00
Zn6    Zn    0.21567   0.06024   0.97917   0.01267  Uiso   1.00
Zn7    Zn    0.76252   0.52082   0.13862   0.01267  Uiso   1.00
Zn8    Zn    0.58107   0.23650   0.52083   0.01267  Uiso   1.00
H1     H     0.93510   0.39640   0.39510   0.01267  Uiso   1.00
H2     H     0.78590   0.24070   0.13740   0.01267  Uiso   1.00
H3     H     0.93360   0.13310   0.30870   0.01267  Uiso   1.00
H4     H     0.99220   0.19630   0.88030   0.01267  Uiso   1.00
H5     H     0.79780   0.70310   0.96010   0.01267  Uiso   1.00
H6     H     0.78080   0.71770   0.04490   0.01267  Uiso   1.00
H7     H     0.59980   0.64180   0.92320   0.01267  Uiso   1.00
H8     H     0.65340   0.73430   0.88490   0.01267  Uiso   1.00
H9     H     0.53060   0.78490   0.88790   0.01267  Uiso   1.00
H10    H     0.47410   0.69030   0.92240   0.01267  Uiso   1.00
H11    H     0.54810   0.90490   0.99900   0.01267  Uiso   1.00
H12    H     0.41900   0.80670   0.94530   0.01267  Uiso   1.00
H13    H     0.66840   0.89500   0.14260   0.01267  Uiso   1.00
H14    H     0.61070   0.79590   0.17320   0.01267  Uiso   1.00
H15    H     0.59640   0.67760   0.05520   0.01267  Uiso   1.00
H16    H     0.72530   0.77520   0.10790   0.01267  Uiso   1.00
H17    H     0.50130   0.54000   0.10490   0.01267  Uiso   1.00
H18    H     0.60330   0.64850   0.36260   0.01267  Uiso   1.00
H19    H     0.32440   0.62490   0.19130   0.01267  Uiso   1.00
H20    H     0.81600   0.11190   0.61970   0.01267  Uiso   1.00
H21    H     0.24300   0.83770   0.53990   0.01267  Uiso   1.00
H22    H     0.17280   0.73590   0.45510   0.01267  Uiso   1.00
H23    H     0.21860   0.67660   0.57680   0.01267  Uiso   1.00
H24    H     0.34940   0.76850   0.61510   0.01267  Uiso   1.00
H25    H     0.39700   0.64270   0.61210   0.01267  Uiso   1.00
H26    H     0.26790   0.55170   0.57760   0.01267  Uiso   1.00
H27    H     0.40590   0.54910   0.50100   0.01267  Uiso   1.00
H28    H     0.36140   0.47370   0.55470   0.01267  Uiso   1.00
H29    H     0.25240   0.52580   0.35740   0.01267  Uiso   1.00
H30    H     0.12270   0.43750   0.32680   0.01267  Uiso   1.00
H31    H     0.12240   0.54120   0.44480   0.01267  Uiso   1.00
H32    H     0.16730   0.61740   0.39210   0.01267  Uiso   1.00
H33    H     0.06490   0.60360   0.60490   0.01267  Uiso   1.00
H34    H     0.21410   0.75930   0.86260   0.01267  Uiso   1.00
H35    H     0.06640   0.86690   0.69130   0.01267  Uiso   1.00
H36    H     0.00780   0.80370   0.11970   0.01267  Uiso   1.00
H37    H     0.20220   0.29690   0.03990   0.01267  Uiso   1.00
H38    H     0.21920   0.28230   0.95510   0.01267  Uiso   1.00
H39    H     0.40020   0.35820   0.07680   0.01267  Uiso   1.00
H40    H     0.34660   0.26570   0.11510   0.01267  Uiso   1.00
H41    H     0.46940   0.21510   0.11210   0.01267  Uiso   1.00
H42    H     0.52590   0.30970   0.07760   0.01267  Uiso   1.00
H43    H     0.45190   0.09510   0.00100   0.01267  Uiso   1.00
H44    H     0.58100   0.19330   0.05470   0.01267  Uiso   1.00
H45    H     0.33160   0.10500   0.85740   0.01267  Uiso   1.00
H46    H     0.38930   0.20410   0.82680   0.01267  Uiso   1.00
H47    H     0.40360   0.32240   0.94480   0.01267  Uiso   1.00
H48    H     0.27470   0.22480   0.89210   0.01267  Uiso   1.00
H49    H     0.49870   0.46000   0.89510   0.01267  Uiso   1.00
H50    H     0.39670   0.35150   0.63740   0.01267  Uiso   1.00
H51    H     0.67560   0.37510   0.80870   0.01267  Uiso   1.00
H52    H     0.18400   0.88810   0.38030   0.01267  Uiso   1.00
H53    H     0.75700   0.16230   0.46010   0.01267  Uiso   1.00
H54    H     0.82720   0.26410   0.54490   0.01267  Uiso   1.00
H55    H     0.78140   0.32340   0.42320   0.01267  Uiso   1.00
H56    H     0.65060   0.23150   0.38490   0.01267  Uiso   1.00
H57    H     0.60300   0.35730   0.38790   0.01267  Uiso   1.00
H58    H     0.73210   0.44830   0.42240   0.01267  Uiso   1.00
H59    H     0.59410   0.45090   0.49900   0.01267  Uiso   1.00
H60    H     0.63860   0.52630   0.44530   0.01267  Uiso   1.00
H61    H     0.74760   0.47420   0.64260   0.01267  Uiso   1.00
H62    H     0.87730   0.56250   0.67320   0.01267  Uiso   1.00
H63    H     0.87760   0.45880   0.55520   0.01267  Uiso   1.00
H64    H     0.83270   0.38260   0.60790   0.01267  Uiso   1.00
H65    H     0.68140   0.93140   0.75000   0.01267  Uiso   1.00
H66    H     0.31860   0.06860   0.25000   0.01267  Uiso   1.00
C1     C     0.00920   0.27650   0.46130   0.01267  Uiso   1.00
C2     C     0.94450   0.26600   0.36750   0.01267  Uiso   1.00
C3     C     0.91570   0.34060   0.34910   0.01267  Uiso   1.00
C4     C     0.85920   0.33310   0.26450   0.01267  Uiso   1.00
C5     C     0.82640   0.24750   0.19490   0.01267  Uiso   1.00
C6     C     0.85500   0.17250   0.21250   0.01267  Uiso   1.00
C7     C     0.91390   0.18270   0.29760   0.01267  Uiso   1.00
C8     C     0.83220   0.41590   0.24730   0.01267  Uiso   1.00
C9     C     0.82180   0.08380   0.13700   0.01267  Uiso   1.00
C10    C     0.83940   0.05910   0.82730   0.01267  Uiso   1.00
C11    C     0.92730   0.14900   0.82770   0.01267  Uiso   1.00
C12    C     0.84770   0.03120   0.91150   0.01267  Uiso   1.00
C13    C     0.77950   0.74190   0.99480   0.01267  Uiso   1.00
C14    C     0.65810   0.71760   0.93850   0.01267  Uiso   1.00
C15    C     0.53110   0.76710   0.94040   0.01267  Uiso   1.00
C16    C     0.49590   0.82740   0.98330   0.01267  Uiso   1.00
C17    C     0.61230   0.81770   0.12240   0.01267  Uiso   1.00
C18    C     0.64810   0.75520   0.07130   0.01267  Uiso   1.00
C19    C     0.31520   0.54790   0.03870   0.01267  Uiso   1.00
C20    C     0.39850   0.57700   0.13250   0.01267  Uiso   1.00
C21    C     0.49150   0.56660   0.15090   0.01267  Uiso   1.00
C22    C     0.56860   0.59470   0.23550   0.01267  Uiso   1.00
C23    C     0.55260   0.63150   0.30510   0.01267  Uiso   1.00
C24    C     0.46000   0.64250   0.28750   0.01267  Uiso   1.00
C25    C     0.38510   0.61630   0.20240   0.01267  Uiso   1.00
C26    C     0.66860   0.58490   0.25270   0.01267  Uiso   1.00
C27    C     0.44680   0.68480   0.36300   0.01267  Uiso   1.00
C28    C     0.73180   0.01210   0.67270   0.01267  Uiso   1.00
C29    C     0.82130   0.09960   0.67230   0.01267  Uiso   1.00
C30    C     0.61970   0.93620   0.58850   0.01267  Uiso   1.00
C31    C     0.24710   0.78470   0.50520   0.01267  Uiso   1.00
C32    C     0.27910   0.71960   0.56150   0.01267  Uiso   1.00
C33    C     0.32670   0.59070   0.55960   0.01267  Uiso   1.00
C34    C     0.34410   0.51260   0.51670   0.01267  Uiso   1.00
C35    C     0.19530   0.48990   0.37760   0.01267  Uiso   1.00
C36    C     0.18390   0.57680   0.42870   0.01267  Uiso   1.00
C37    C     0.99080   0.72350   0.53870   0.01267  Uiso   1.00
C38    C     0.05550   0.73400   0.63250   0.01267  Uiso   1.00
C39    C     0.08430   0.65940   0.65090   0.01267  Uiso   1.00
C40    C     0.14080   0.66690   0.73550   0.01267  Uiso   1.00
C41    C     0.17360   0.75250   0.80510   0.01267  Uiso   1.00
C42    C     0.14500   0.82750   0.78750   0.01267  Uiso   1.00
C43    C     0.08610   0.81730   0.70240   0.01267  Uiso   1.00
C44    C     0.16780   0.58410   0.75270   0.01267  Uiso   1.00
C45    C     0.17820   0.91620   0.86300   0.01267  Uiso   1.00
C46    C     0.16060   0.94090   0.17270   0.01267  Uiso   1.00
C47    C     0.07270   0.85100   0.17230   0.01267  Uiso   1.00
C48    C     0.15230   0.96880   0.08850   0.01267  Uiso   1.00
C49    C     0.22050   0.25810   0.00520   0.01267  Uiso   1.00
C50    C     0.34190   0.28240   0.06150   0.01267  Uiso   1.00
C51    C     0.46890   0.23290   0.05960   0.01267  Uiso   1.00
C52    C     0.50410   0.17260   0.01670   0.01267  Uiso   1.00
C53    C     0.38770   0.18230   0.87760   0.01267  Uiso   1.00
C54    C     0.35190   0.24480   0.92870   0.01267  Uiso   1.00
C55    C     0.68480   0.45210   0.96130   0.01267  Uiso   1.00
C56    C     0.60150   0.42300   0.86750   0.01267  Uiso   1.00
C57    C     0.50850   0.43340   0.84910   0.01267  Uiso   1.00
C58    C     0.43140   0.40530   0.76450   0.01267  Uiso   1.00
C59    C     0.44740   0.36850   0.69490   0.01267  Uiso   1.00
C60    C     0.54000   0.35750   0.71250   0.01267  Uiso   1.00
C61    C     0.61490   0.38370   0.79760   0.01267  Uiso   1.00
C62    C     0.33140   0.41510   0.74730   0.01267  Uiso   1.00
C63    C     0.55320   0.31520   0.63700   0.01267  Uiso   1.00
C64    C     0.26820   0.98790   0.32730   0.01267  Uiso   1.00
C65    C     0.17870   0.90040   0.32770   0.01267  Uiso   1.00
C66    C     0.38030   0.06380   0.41150   0.01267  Uiso   1.00
C67    C     0.75290   0.21530   0.49480   0.01267  Uiso   1.00
C68    C     0.72090   0.28040   0.43850   0.01267  Uiso   1.00
C69    C     0.67330   0.40930   0.44040   0.01267  Uiso   1.00
C70    C     0.65590   0.48740   0.48330   0.01267  Uiso   1.00
C71    C     0.80470   0.51010   0.62240   0.01267  Uiso   1.00
C72    C     0.81610   0.42320   0.57130   0.01267  Uiso   1.00
C73    C     0.01850   0.26850   0.75000   0.01267  Uiso   1.00
C74    C     0.92240   0.17240   0.75000   0.01267  Uiso   1.00
C75    C     0.74240   0.99240   0.75000   0.01267  Uiso   1.00
C76    C     0.98150   0.73150   0.25000   0.01267  Uiso   1.00
C77    C     0.07760   0.82760   0.25000   0.01267  Uiso   1.00
C78    C     0.25760   0.00760   0.25000   0.01267  Uiso   1.00
N1     N     0.64240   0.78650   0.99250   0.01267  Uiso   1.00
N2     N     0.29400   0.64990   0.50750   0.01267  Uiso   1.00
N3     N     0.35760   0.21350   0.00750   0.01267  Uiso   1.00
N4     N     0.70600   0.35010   0.49250   0.01267  Uiso   1.00
O1     O     0.03820   0.21390   0.47770   0.01267  Uiso   1.00
O2     O     0.03150   0.35620   0.51910   0.01267  Uiso   1.00
O3     O     0.84700   0.47930   0.31250   0.01267  Uiso   1.00
O4     O     0.79940   0.41760   0.17160   0.01267  Uiso   1.00
O5     O     0.86420   0.02830   0.14970   0.01267  Uiso   1.00
O6     O     0.75350   0.06790   0.06160   0.01267  Uiso   1.00
O7     O     0.01310   0.27570   0.67640   0.01267  Uiso   1.00
O8     O     0.93960   0.08280   0.97760   0.01267  Uiso   1.00
O9     O     0.75500   0.95360   0.90440   0.01267  Uiso   1.00
O10    O     0.86280   0.85690   0.02390   0.01267  Uiso   1.00
O11    O     0.50110   0.79410   0.06600   0.01267  Uiso   1.00
O12    O     0.23620   0.56050   0.02230   0.01267  Uiso   1.00
O13    O     0.33710   0.51240   0.98090   0.01267  Uiso   1.00
O14    O     0.66680   0.53450   0.18750   0.01267  Uiso   1.00
O15    O     0.74600   0.62780   0.32840   0.01267  Uiso   1.00
O16    O     0.37860   0.71450   0.35030   0.01267  Uiso   1.00
O17    O     0.50630   0.69190   0.43840   0.01267  Uiso   1.00
O18    O     0.09930   0.33670   0.82360   0.01267  Uiso   1.00
O19    O     0.60520   0.96200   0.52240   0.01267  Uiso   1.00
O20    O     0.54920   0.85060   0.59560   0.01267  Uiso   1.00
O21    O     0.33300   0.83890   0.47610   0.01267  Uiso   1.00
O22    O     0.22810   0.43510   0.43400   0.01267  Uiso   1.00
O23    O     0.96180   0.78610   0.52230   0.01267  Uiso   1.00
O24    O     0.96850   0.64380   0.48090   0.01267  Uiso   1.00
O25    O     0.15300   0.52070   0.68750   0.01267  Uiso   1.00
O26    O     0.20060   0.58240   0.82840   0.01267  Uiso   1.00
O27    O     0.13580   0.97170   0.85030   0.01267  Uiso   1.00
O28    O     0.24650   0.93210   0.93840   0.01267  Uiso   1.00
O29    O     0.98690   0.72430   0.32360   0.01267  Uiso   1.00
O30    O     0.06040   0.91720   0.02240   0.01267  Uiso   1.00
O31    O     0.24500   0.04640   0.09560   0.01267  Uiso   1.00
O32    O     0.13720   0.14310   0.97610   0.01267  Uiso   1.00
O33    O     0.49890   0.20590   0.93400   0.01267  Uiso   1.00
O34    O     0.76380   0.43950   0.97770   0.01267  Uiso   1.00
O35    O     0.66290   0.48760   0.01910   0.01267  Uiso   1.00
O36    O     0.33320   0.46550   0.81250   0.01267  Uiso   1.00
O37    O     0.25400   0.37220   0.67160   0.01267  Uiso   1.00
O38    O     0.62140   0.28550   0.64970   0.01267  Uiso   1.00
O39    O     0.49370   0.30810   0.56160   0.01267  Uiso   1.00
O40    O     0.90070   0.66330   0.17640   0.01267  Uiso   1.00
O41    O     0.39480   0.03800   0.47760   0.01267  Uiso   1.00
O42    O     0.45080   0.14940   0.40440   0.01267  Uiso   1.00
O43    O     0.66700   0.16110   0.52390   0.01267  Uiso   1.00
O44    O     0.77190   0.56490   0.56600   0.01267  Uiso   1.00
