data_PEJRON_clean
_audit_creation_date              2014-07-02
_audit_creation_method            'Materials Studio'
_symmetry_space_group_name_H-M    'P1'
_symmetry_Int_Tables_number       1
_symmetry_cell_setting            triclinic
loop_
_symmetry_equiv_pos_as_xyz
  x,y,z
_cell_length_a                    8.4790
_cell_length_b                    19.3209
_cell_length_c                    19.3209
_cell_angle_alpha                 87.2403
_cell_angle_beta                  77.3247
_cell_angle_gamma                 77.3246
loop_
_atom_site_label
_atom_site_type_symbol
_atom_site_fract_x
_atom_site_fract_y
_atom_site_fract_z
_atom_site_U_iso_or_equiv
_atom_site_adp_type
_atom_site_occupancy
Co1    Co    0.62500   0.79977   0.70023   0.01267  Uiso   1.00
Co2    Co    0.12500   0.20023   0.29977   0.01267  Uiso   1.00
Co3    Co    0.67477   0.70023   0.20023   0.01267  Uiso   1.00
Co4    Co    0.57523   0.29977   0.79977   0.01267  Uiso   1.00
H1     H     0.70930   0.98500   0.91600   0.01267  Uiso   1.00
H2     H     0.59310   0.93100   0.91260   0.01267  Uiso   1.00
H3     H     0.02010   0.87430   0.00930   0.01267  Uiso   1.00
H4     H     0.27830   0.84030   0.93830   0.01267  Uiso   1.00
H5     H     0.07500   0.82690   0.76930   0.01267  Uiso   1.00
H6     H     0.80910   0.86420   0.84080   0.01267  Uiso   1.00
H7     H     0.37200   0.85740   0.60720   0.01267  Uiso   1.00
H8     H     0.78520   0.71960   0.53420   0.01267  Uiso   1.00
H9     H     0.61690   0.73390   0.44470   0.01267  Uiso   1.00
H10    H     0.23250   0.89010   0.32650   0.01267  Uiso   1.00
H11    H     0.90970   0.85040   0.50440   0.01267  Uiso   1.00
H12    H     0.61030   0.01500   0.08400   0.01267  Uiso   1.00
H13    H     0.43670   0.06900   0.08740   0.01267  Uiso   1.00
H14    H     0.90370   0.12570   0.99070   0.01267  Uiso   1.00
H15    H     0.05690   0.15970   0.06170   0.01267  Uiso   1.00
H16    H     0.67120   0.17310   0.23070   0.01267  Uiso   1.00
H17    H     0.51410   0.13580   0.15920   0.01267  Uiso   1.00
H18    H     0.83660   0.14260   0.39280   0.01267  Uiso   1.00
H19    H     0.03900   0.28040   0.46580   0.01267  Uiso   1.00
H20    H     0.79550   0.26610   0.55530   0.01267  Uiso   1.00
H21    H     0.44910   0.10990   0.67350   0.01267  Uiso   1.00
H22    H     0.26450   0.14960   0.49560   0.01267  Uiso   1.00
H23    H     0.37470   0.91600   0.01500   0.01267  Uiso   1.00
H24    H     0.49430   0.91260   0.06900   0.01267  Uiso   1.00
H25    H     0.97060   0.00930   0.12570   0.01267  Uiso   1.00
H26    H     0.78340   0.93830   0.15970   0.01267  Uiso   1.00
H27    H     0.15570   0.76930   0.17310   0.01267  Uiso   1.00
H28    H     0.35010   0.84080   0.13580   0.01267  Uiso   1.00
H29    H     0.02080   0.60720   0.14260   0.01267  Uiso   1.00
H30    H     0.68060   0.53420   0.28040   0.01267  Uiso   1.00
H31    H     0.93840   0.44470   0.26610   0.01267  Uiso   1.00
H32    H     0.44100   0.32650   0.10990   0.01267  Uiso   1.00
H33    H     0.58590   0.50440   0.14960   0.01267  Uiso   1.00
H34    H     0.30570   0.08400   0.98500   0.01267  Uiso   1.00
H35    H     0.47590   0.08740   0.93100   0.01267  Uiso   1.00
H36    H     0.10560   0.99070   0.87430   0.01267  Uiso   1.00
H37    H     0.88140   0.06170   0.84030   0.01267  Uiso   1.00
H38    H     0.09810   0.23070   0.82690   0.01267  Uiso   1.00
H39    H     0.32670   0.15920   0.86420   0.01267  Uiso   1.00
H40    H     0.77060   0.39280   0.85740   0.01267  Uiso   1.00
H41    H     0.49520   0.46580   0.71960   0.01267  Uiso   1.00
H42    H     0.64920   0.55530   0.73390   0.01267  Uiso   1.00
H43    H     0.87740   0.67350   0.89010   0.01267  Uiso   1.00
H44    H     0.23990   0.49560   0.85040   0.01267  Uiso   1.00
H45    H     0.63970   0.41600   0.48500   0.01267  Uiso   1.00
H46    H     0.81330   0.41260   0.43100   0.01267  Uiso   1.00
H47    H     0.34630   0.50930   0.37430   0.01267  Uiso   1.00
H48    H     0.19310   0.43830   0.34030   0.01267  Uiso   1.00
H49    H     0.57880   0.26930   0.32690   0.01267  Uiso   1.00
H50    H     0.73590   0.34080   0.36420   0.01267  Uiso   1.00
H51    H     0.41340   0.10720   0.35740   0.01267  Uiso   1.00
H52    H     0.21100   0.03420   0.21960   0.01267  Uiso   1.00
H53    H     0.45450   0.94470   0.23390   0.01267  Uiso   1.00
H54    H     0.80090   0.82650   0.39010   0.01267  Uiso   1.00
H55    H     0.98550   0.00440   0.35040   0.01267  Uiso   1.00
H56    H     0.54070   0.58400   0.51500   0.01267  Uiso   1.00
H57    H     0.65690   0.58740   0.56900   0.01267  Uiso   1.00
H58    H     0.22990   0.49070   0.62570   0.01267  Uiso   1.00
H59    H     0.97170   0.56170   0.65970   0.01267  Uiso   1.00
H60    H     0.17500   0.73070   0.67310   0.01267  Uiso   1.00
H61    H     0.44090   0.65920   0.63580   0.01267  Uiso   1.00
H62    H     0.87800   0.89280   0.64260   0.01267  Uiso   1.00
H63    H     0.46480   0.96580   0.78040   0.01267  Uiso   1.00
H64    H     0.63310   0.05530   0.76610   0.01267  Uiso   1.00
H65    H     0.01750   0.17350   0.60990   0.01267  Uiso   1.00
H66    H     0.34030   0.99560   0.64960   0.01267  Uiso   1.00
H67    H     0.94430   0.51500   0.41600   0.01267  Uiso   1.00
H68    H     0.77410   0.56900   0.41260   0.01267  Uiso   1.00
H69    H     0.14440   0.62570   0.50930   0.01267  Uiso   1.00
H70    H     0.36860   0.65970   0.43830   0.01267  Uiso   1.00
H71    H     0.15190   0.67310   0.26930   0.01267  Uiso   1.00
H72    H     0.92330   0.63580   0.34080   0.01267  Uiso   1.00
H73    H     0.47940   0.64260   0.10720   0.01267  Uiso   1.00
H74    H     0.75480   0.78040   0.03420   0.01267  Uiso   1.00
H75    H     0.60080   0.76610   0.94470   0.01267  Uiso   1.00
H76    H     0.37260   0.60990   0.82650   0.01267  Uiso   1.00
H77    H     0.01010   0.64960   0.00440   0.01267  Uiso   1.00
H78    H     0.87530   0.48500   0.58400   0.01267  Uiso   1.00
H79    H     0.75570   0.43100   0.58740   0.01267  Uiso   1.00
H80    H     0.27940   0.37430   0.49070   0.01267  Uiso   1.00
H81    H     0.46660   0.34030   0.56170   0.01267  Uiso   1.00
H82    H     0.09430   0.32690   0.73070   0.01267  Uiso   1.00
H83    H     0.89990   0.36420   0.65920   0.01267  Uiso   1.00
H84    H     0.22920   0.35740   0.89280   0.01267  Uiso   1.00
H85    H     0.56940   0.21960   0.96580   0.01267  Uiso   1.00
H86    H     0.31160   0.23390   0.05530   0.01267  Uiso   1.00
H87    H     0.80900   0.39010   0.17350   0.01267  Uiso   1.00
H88    H     0.66410   0.35040   0.99560   0.01267  Uiso   1.00
C1     C     0.64270   0.95360   0.94500   0.01267  Uiso   1.00
C2     C     0.89170   0.87870   0.93130   0.01267  Uiso   1.00
C3     C     0.03150   0.86710   0.95990   0.01267  Uiso   1.00
C4     C     0.18270   0.84590   0.91870   0.01267  Uiso   1.00
C5     C     0.19910   0.83190   0.84610   0.01267  Uiso   1.00
C6     C     0.06230   0.83820   0.81780   0.01267  Uiso   1.00
C7     C     0.90500   0.86080   0.85960   0.01267  Uiso   1.00
C8     C     0.36770   0.81420   0.80140   0.01267  Uiso   1.00
C9     C     0.45770   0.82500   0.57740   0.01267  Uiso   1.00
C10    C     0.67920   0.75010   0.53810   0.01267  Uiso   1.00
C11    C     0.58980   0.75810   0.48870   0.01267  Uiso   1.00
C12    C     0.31250   0.82270   0.47650   0.01267  Uiso   1.00
C13    C     0.34290   0.84730   0.40710   0.01267  Uiso   1.00
C14    C     0.21180   0.87320   0.37400   0.01267  Uiso   1.00
C15    C     0.05040   0.87430   0.41030   0.01267  Uiso   1.00
C16    C     0.02010   0.84960   0.47960   0.01267  Uiso   1.00
C17    C     0.15110   0.82384   0.51276   0.01267  Uiso   1.00
C18    C     0.54130   0.04640   0.05500   0.01267  Uiso   1.00
C19    C     0.70170   0.12130   0.06870   0.01267  Uiso   1.00
C20    C     0.85850   0.13290   0.04010   0.01267  Uiso   1.00
C21    C     0.94730   0.15410   0.08130   0.01267  Uiso   1.00
C22    C     0.87710   0.16810   0.15390   0.01267  Uiso   1.00
C23    C     0.71830   0.16180   0.18220   0.01267  Uiso   1.00
C24    C     0.62540   0.13920   0.14040   0.01267  Uiso   1.00
C25    C     0.98330   0.18580   0.19860   0.01267  Uiso   1.00
C26    C     0.86010   0.17500   0.42260   0.01267  Uiso   1.00
C27    C     0.96740   0.24990   0.46190   0.01267  Uiso   1.00
C28    C     0.83660   0.24190   0.51130   0.01267  Uiso   1.00
C29    C     0.61170   0.17730   0.52350   0.01267  Uiso   1.00
C30    C     0.59730   0.15270   0.59290   0.01267  Uiso   1.00
C31    C     0.45900   0.12680   0.62600   0.01267  Uiso   1.00
C32    C     0.33500   0.12570   0.58970   0.01267  Uiso   1.00
C33    C     0.34930   0.15040   0.52040   0.01267  Uiso   1.00
C34    C     0.48770   0.17616   0.48724   0.01267  Uiso   1.00
C35    C     0.41230   0.94500   0.04640   0.01267  Uiso   1.00
C36    C     0.17700   0.93130   0.12130   0.01267  Uiso   1.00
C37    C     0.00860   0.95990   0.13290   0.01267  Uiso   1.00
C38    C     0.89860   0.91870   0.15410   0.01267  Uiso   1.00
C39    C     0.95480   0.84610   0.16810   0.01267  Uiso   1.00
C40    C     0.11990   0.81780   0.16180   0.01267  Uiso   1.00
C41    C     0.23540   0.85960   0.13920   0.01267  Uiso   1.00
C42    C     0.83090   0.80140   0.18580   0.01267  Uiso   1.00
C43    C     0.96490   0.57740   0.17500   0.01267  Uiso   1.00
C44    C     0.78270   0.53810   0.24990   0.01267  Uiso   1.00
C45    C     0.92150   0.48870   0.24190   0.01267  Uiso   1.00
C46    C     0.21100   0.47650   0.17730   0.01267  Uiso   1.00
C47    C     0.25000   0.40710   0.15270   0.01267  Uiso   1.00
C48    C     0.41420   0.37400   0.12680   0.01267  Uiso   1.00
C49    C     0.53930   0.41030   0.12570   0.01267  Uiso   1.00
C50    C     0.50030   0.47960   0.15040   0.01267  Uiso   1.00
C51    C     0.33614   0.51276   0.17616   0.01267  Uiso   1.00
C52    C     0.40370   0.05500   0.95360   0.01267  Uiso   1.00
C53    C     0.22960   0.06870   0.87870   0.01267  Uiso   1.00
C54    C     0.10140   0.04010   0.86710   0.01267  Uiso   1.00
C55    C     0.97140   0.08130   0.84590   0.01267  Uiso   1.00
C56    C     0.96900   0.15390   0.83190   0.01267  Uiso   1.00
C57    C     0.09950   0.18220   0.83820   0.01267  Uiso   1.00
C58    C     0.23420   0.14040   0.86080   0.01267  Uiso   1.00
C59    C     0.81810   0.19860   0.81420   0.01267  Uiso   1.00
C60    C     0.71730   0.42260   0.82500   0.01267  Uiso   1.00
C61    C     0.57070   0.46190   0.75010   0.01267  Uiso   1.00
C62    C     0.65210   0.51130   0.75810   0.01267  Uiso   1.00
C63    C     0.86480   0.52350   0.82270   0.01267  Uiso   1.00
C64    C     0.80980   0.59290   0.84730   0.01267  Uiso   1.00
C65    C     0.91500   0.62600   0.87320   0.01267  Uiso   1.00
C66    C     0.07530   0.58970   0.87430   0.01267  Uiso   1.00
C67    C     0.13030   0.52040   0.84960   0.01267  Uiso   1.00
C68    C     0.02506   0.48724   0.82384   0.01267  Uiso   1.00
C69    C     0.70870   0.44500   0.45360   0.01267  Uiso   1.00
C70    C     0.54830   0.43130   0.37870   0.01267  Uiso   1.00
C71    C     0.39150   0.45990   0.36710   0.01267  Uiso   1.00
C72    C     0.30270   0.41870   0.34590   0.01267  Uiso   1.00
C73    C     0.37290   0.34610   0.33190   0.01267  Uiso   1.00
C74    C     0.53170   0.31780   0.33820   0.01267  Uiso   1.00
C75    C     0.62460   0.35960   0.36080   0.01267  Uiso   1.00
C76    C     0.26670   0.30140   0.31420   0.01267  Uiso   1.00
C77    C     0.38990   0.07740   0.32500   0.01267  Uiso   1.00
C78    C     0.28260   0.03810   0.25010   0.01267  Uiso   1.00
C79    C     0.41340   0.98870   0.25810   0.01267  Uiso   1.00
C80    C     0.63830   0.97650   0.32270   0.01267  Uiso   1.00
C81    C     0.65270   0.90710   0.34730   0.01267  Uiso   1.00
C82    C     0.79100   0.87400   0.37320   0.01267  Uiso   1.00
C83    C     0.91500   0.91030   0.37430   0.01267  Uiso   1.00
C84    C     0.90070   0.97960   0.34960   0.01267  Uiso   1.00
C85    C     0.76230   0.01276   0.32384   0.01267  Uiso   1.00
C86    C     0.60730   0.55500   0.54640   0.01267  Uiso   1.00
C87    C     0.35830   0.56870   0.62130   0.01267  Uiso   1.00
C88    C     0.21850   0.54010   0.63290   0.01267  Uiso   1.00
C89    C     0.06730   0.58130   0.65410   0.01267  Uiso   1.00
C90    C     0.05090   0.65390   0.66810   0.01267  Uiso   1.00
C91    C     0.18770   0.68220   0.66180   0.01267  Uiso   1.00
C92    C     0.34500   0.64040   0.63920   0.01267  Uiso   1.00
C93    C     0.88230   0.69860   0.68580   0.01267  Uiso   1.00
C94    C     0.79230   0.92260   0.67500   0.01267  Uiso   1.00
C95    C     0.57080   0.96190   0.74990   0.01267  Uiso   1.00
C96    C     0.66020   0.01130   0.74190   0.01267  Uiso   1.00
C97    C     0.93750   0.02350   0.67730   0.01267  Uiso   1.00
C98    C     0.90710   0.09290   0.65270   0.01267  Uiso   1.00
C99    C     0.03820   0.12600   0.62680   0.01267  Uiso   1.00
C100   C     0.19960   0.08970   0.62570   0.01267  Uiso   1.00
C101   C     0.22990   0.02040   0.65040   0.01267  Uiso   1.00
C102   C     0.09890   0.98724   0.67616   0.01267  Uiso   1.00
C103   C     0.84630   0.54640   0.44500   0.01267  Uiso   1.00
C104   C     0.02040   0.62130   0.43130   0.01267  Uiso   1.00
C105   C     0.14860   0.63290   0.45990   0.01267  Uiso   1.00
C106   C     0.27860   0.65410   0.41870   0.01267  Uiso   1.00
C107   C     0.28100   0.66810   0.34610   0.01267  Uiso   1.00
C108   C     0.15050   0.66180   0.31780   0.01267  Uiso   1.00
C109   C     0.01580   0.63920   0.35960   0.01267  Uiso   1.00
C110   C     0.43190   0.68580   0.30140   0.01267  Uiso   1.00
C111   C     0.53270   0.67500   0.07740   0.01267  Uiso   1.00
C112   C     0.67930   0.74990   0.03810   0.01267  Uiso   1.00
C113   C     0.59790   0.74190   0.98870   0.01267  Uiso   1.00
C114   C     0.38520   0.67730   0.97650   0.01267  Uiso   1.00
C115   C     0.44020   0.65270   0.90710   0.01267  Uiso   1.00
C116   C     0.33500   0.62680   0.87400   0.01267  Uiso   1.00
C117   C     0.17470   0.62570   0.91030   0.01267  Uiso   1.00
C118   C     0.11970   0.65040   0.97960   0.01267  Uiso   1.00
C119   C     0.22494   0.67616   0.01276   0.01267  Uiso   1.00
C120   C     0.83770   0.45360   0.55500   0.01267  Uiso   1.00
C121   C     0.07300   0.37870   0.56870   0.01267  Uiso   1.00
C122   C     0.24140   0.36710   0.54010   0.01267  Uiso   1.00
C123   C     0.35140   0.34590   0.58130   0.01267  Uiso   1.00
C124   C     0.29520   0.33190   0.65390   0.01267  Uiso   1.00
C125   C     0.13010   0.33820   0.68220   0.01267  Uiso   1.00
C126   C     0.01460   0.36080   0.64040   0.01267  Uiso   1.00
C127   C     0.41910   0.31420   0.69860   0.01267  Uiso   1.00
C128   C     0.28510   0.32500   0.92260   0.01267  Uiso   1.00
C129   C     0.46730   0.25010   0.96190   0.01267  Uiso   1.00
C130   C     0.32850   0.25810   0.01130   0.01267  Uiso   1.00
C131   C     0.03900   0.32270   0.02350   0.01267  Uiso   1.00
C132   C     0.00000   0.34730   0.09290   0.01267  Uiso   1.00
C133   C     0.83580   0.37320   0.12600   0.01267  Uiso   1.00
C134   C     0.71070   0.37430   0.08970   0.01267  Uiso   1.00
C135   C     0.74970   0.34960   0.02040   0.01267  Uiso   1.00
C136   C     0.91386   0.32384   0.98724   0.01267  Uiso   1.00
C137   C     0.50000   0.00000   0.00000   0.01267  Uiso   1.00
C138   C     0.75000   0.50000   0.50000   0.01267  Uiso   1.00
N1     N     0.59530   0.79260   0.59640   0.01267  Uiso   1.00
N2     N     0.45020   0.80850   0.51430   0.01267  Uiso   1.00
N3     N     0.98430   0.20740   0.40360   0.01267  Uiso   1.00
N4     N     0.77300   0.19150   0.48570   0.01267  Uiso   1.00
N5     N     0.80830   0.59640   0.20740   0.01267  Uiso   1.00
N6     N     0.03550   0.51430   0.19150   0.01267  Uiso   1.00
N7     N     0.61210   0.40360   0.79260   0.01267  Uiso   1.00
N8     N     0.74130   0.48570   0.80850   0.01267  Uiso   1.00
N9     N     0.26570   0.09640   0.29260   0.01267  Uiso   1.00
N10    N     0.47700   0.01430   0.30850   0.01267  Uiso   1.00
N11    N     0.65470   0.90360   0.70740   0.01267  Uiso   1.00
N12    N     0.79980   0.98570   0.69150   0.01267  Uiso   1.00
N13    N     0.63790   0.70740   0.09640   0.01267  Uiso   1.00
N14    N     0.50870   0.69150   0.01430   0.01267  Uiso   1.00
N15    N     0.44170   0.29260   0.90360   0.01267  Uiso   1.00
N16    N     0.21450   0.30850   0.98570   0.01267  Uiso   1.00
O1     O     0.74100   0.90430   0.97270   0.01267  Uiso   1.00
O2     O     0.37910   0.81030   0.73410   0.01267  Uiso   1.00
O3     O     0.49560   0.80350   0.82330   0.01267  Uiso   1.00
O4     O     0.61800   0.09570   0.02730   0.01267  Uiso   1.00
O5     O     0.92350   0.18970   0.26590   0.01267  Uiso   1.00
O6     O     0.12240   0.19650   0.17670   0.01267  Uiso   1.00
O7     O     0.28630   0.97270   0.09570   0.01267  Uiso   1.00
O8     O     0.88680   0.73410   0.18970   0.01267  Uiso   1.00
O9     O     0.68110   0.82330   0.19650   0.01267  Uiso   1.00
O10    O     0.35470   0.02730   0.90430   0.01267  Uiso   1.00
O11    O     0.81060   0.26590   0.81030   0.01267  Uiso   1.00
O12    O     0.70090   0.17670   0.80350   0.01267  Uiso   1.00
O13    O     0.63200   0.47270   0.40430   0.01267  Uiso   1.00
O14    O     0.32650   0.23410   0.31030   0.01267  Uiso   1.00
O15    O     0.12760   0.32330   0.30350   0.01267  Uiso   1.00
O16    O     0.50900   0.52730   0.59570   0.01267  Uiso   1.00
O17    O     0.87090   0.76590   0.68970   0.01267  Uiso   1.00
O18    O     0.75440   0.67670   0.69650   0.01267  Uiso   1.00
O19    O     0.89530   0.59570   0.47270   0.01267  Uiso   1.00
O20    O     0.43940   0.68970   0.23410   0.01267  Uiso   1.00
O21    O     0.54910   0.69650   0.32330   0.01267  Uiso   1.00
O22    O     0.96370   0.40430   0.52730   0.01267  Uiso   1.00
O23    O     0.36320   0.31030   0.76590   0.01267  Uiso   1.00
O24    O     0.56890   0.30350   0.67670   0.01267  Uiso   1.00
