data_PEPHOJ_clean
_audit_creation_date              2014-07-02
_audit_creation_method            'Materials Studio'
_symmetry_space_group_name_H-M    'P1'
_symmetry_Int_Tables_number       1
_symmetry_cell_setting            triclinic
loop_
_symmetry_equiv_pos_as_xyz
  x,y,z
_cell_length_a                    11.8880
_cell_length_b                    12.9160
_cell_length_c                    13.0090
_cell_angle_alpha                 93.9400
_cell_angle_beta                  112.0700
_cell_angle_gamma                 110.3400
loop_
_atom_site_label
_atom_site_type_symbol
_atom_site_fract_x
_atom_site_fract_y
_atom_site_fract_z
_atom_site_U_iso_or_equiv
_atom_site_adp_type
_atom_site_occupancy
Cd1    Cd    0.47457   0.67789   0.67557   0.01267  Uiso   1.00
Cd2    Cd    0.14664   0.45403   0.47152   0.01267  Uiso   1.00
Cd3    Cd    0.52543   0.32211   0.32444   0.01267  Uiso   1.00
Cd4    Cd    0.85336   0.54597   0.52848   0.01267  Uiso   1.00
H1     H     0.26100   0.30600   0.07300   0.01267  Uiso   1.00
H2     H     0.54900   0.42120   0.71880   0.01267  Uiso   1.00
H3     H     0.26940   0.34810   0.83620   0.01267  Uiso   1.00
H4     H     0.62410   0.34410   0.02540   0.01267  Uiso   1.00
H5     H     0.06520   0.73590   0.34640   0.01267  Uiso   1.00
H6     H     0.19250   0.01970   0.23970   0.01267  Uiso   1.00
H7     H     0.44410   0.87580   0.39190   0.01267  Uiso   1.00
H8     H     0.75020   0.07560   0.15070   0.01267  Uiso   1.00
H9     H     0.80290   0.92360   0.11790   0.01267  Uiso   1.00
H10    H     0.10910   0.04040   0.42700   0.01267  Uiso   1.00
H11    H     0.05500   0.19190   0.46000   0.01267  Uiso   1.00
H12    H     0.03670   0.49410   0.22500   0.01267  Uiso   1.00
H13    H     0.59620   0.08530   0.29890   0.01267  Uiso   1.00
H14    H     0.98860   0.22110   0.01890   0.01267  Uiso   1.00
H15    H     0.85920   0.50960   0.08090   0.01267  Uiso   1.00
H16    H     0.80980   0.23560   0.87660   0.01267  Uiso   1.00
H17    H     0.73900   0.69400   0.92700   0.01267  Uiso   1.00
H18    H     0.45100   0.57880   0.28120   0.01267  Uiso   1.00
H19    H     0.73060   0.65190   0.16380   0.01267  Uiso   1.00
H20    H     0.37590   0.65590   0.97460   0.01267  Uiso   1.00
H21    H     0.93480   0.26410   0.65360   0.01267  Uiso   1.00
H22    H     0.80750   0.98030   0.76030   0.01267  Uiso   1.00
H23    H     0.55590   0.12420   0.60810   0.01267  Uiso   1.00
H24    H     0.24980   0.92440   0.84930   0.01267  Uiso   1.00
H25    H     0.19710   0.07640   0.88210   0.01267  Uiso   1.00
H26    H     0.89090   0.95960   0.57300   0.01267  Uiso   1.00
H27    H     0.94500   0.80810   0.54000   0.01267  Uiso   1.00
H28    H     0.96330   0.50590   0.77500   0.01267  Uiso   1.00
H29    H     0.40380   0.91470   0.70110   0.01267  Uiso   1.00
H30    H     0.01140   0.77890   0.98110   0.01267  Uiso   1.00
H31    H     0.14080   0.49040   0.91910   0.01267  Uiso   1.00
H32    H     0.19020   0.76440   0.12340   0.01267  Uiso   1.00
C1     C     0.43590   0.04880   0.29030   0.01267  Uiso   1.00
C2     C     0.85260   0.23860   0.32946   0.01267  Uiso   1.00
C3     C     0.39670   0.38950   0.76242   0.01267  Uiso   1.00
C4     C     0.52110   0.40050   0.77500   0.01267  Uiso   1.00
C5     C     0.35480   0.35920   0.84640   0.01267  Uiso   1.00
C6     C     0.30560   0.41172   0.65905   0.01267  Uiso   1.00
C7     C     0.40450   0.32640   0.04240   0.01267  Uiso   1.00
C8     C     0.44220   0.34550   0.94597   0.01267  Uiso   1.00
C9     C     0.56680   0.35480   0.95930   0.01267  Uiso   1.00
C10    C     0.28380   0.69980   0.43563   0.01267  Uiso   1.00
C11    C     0.13350   0.79300   0.33890   0.01267  Uiso   1.00
C12    C     0.10960   0.87860   0.28810   0.01267  Uiso   1.00
C13    C     0.20880   0.96230   0.27400   0.01267  Uiso   1.00
C14    C     0.33340   0.95980   0.31161   0.01267  Uiso   1.00
C15    C     0.35970   0.87590   0.36532   0.01267  Uiso   1.00
C16    C     0.25860   0.79230   0.37857   0.01267  Uiso   1.00
C17    C     0.15040   0.34990   0.22287   0.01267  Uiso   1.00
C18    C     0.60430   0.38020   0.87218   0.01267  Uiso   1.00
C19    C     0.82180   0.06810   0.20660   0.01267  Uiso   1.00
C20    C     0.85370   0.97760   0.18650   0.01267  Uiso   1.00
C21    C     0.03680   0.04770   0.37170   0.01267  Uiso   1.00
C22    C     0.00390   0.13790   0.39140   0.01267  Uiso   1.00
C23    C     0.89640   0.14800   0.31030   0.01267  Uiso   1.00
C24    C     0.03230   0.35680   0.13667   0.01267  Uiso   1.00
C25    C     0.81990   0.37500   0.96603   0.01267  Uiso   1.00
C26    C     0.99210   0.44260   0.15486   0.01267  Uiso   1.00
C27    C     0.96050   0.96850   0.26850   0.01267  Uiso   1.00
C28    C     0.96300   0.27930   0.03170   0.01267  Uiso   1.00
C29    C     0.88560   0.45180   0.06890   0.01267  Uiso   1.00
C30    C     0.85640   0.28790   0.94640   0.01267  Uiso   1.00
C31    C     0.56410   0.95120   0.70970   0.01267  Uiso   1.00
C32    C     0.14740   0.76140   0.67054   0.01267  Uiso   1.00
C33    C     0.60330   0.61050   0.23758   0.01267  Uiso   1.00
C34    C     0.47890   0.59950   0.22500   0.01267  Uiso   1.00
C35    C     0.64520   0.64080   0.15360   0.01267  Uiso   1.00
C36    C     0.69440   0.58828   0.34095   0.01267  Uiso   1.00
C37    C     0.59550   0.67360   0.95760   0.01267  Uiso   1.00
C38    C     0.55780   0.65450   0.05403   0.01267  Uiso   1.00
C39    C     0.43320   0.64520   0.04070   0.01267  Uiso   1.00
C40    C     0.71620   0.30020   0.56437   0.01267  Uiso   1.00
C41    C     0.86650   0.20700   0.66110   0.01267  Uiso   1.00
C42    C     0.89040   0.12140   0.71190   0.01267  Uiso   1.00
C43    C     0.79120   0.03770   0.72600   0.01267  Uiso   1.00
C44    C     0.66660   0.04020   0.68839   0.01267  Uiso   1.00
C45    C     0.64030   0.12410   0.63468   0.01267  Uiso   1.00
C46    C     0.74140   0.20770   0.62143   0.01267  Uiso   1.00
C47    C     0.84960   0.65010   0.77713   0.01267  Uiso   1.00
C48    C     0.39570   0.61980   0.12782   0.01267  Uiso   1.00
C49    C     0.17820   0.93190   0.79340   0.01267  Uiso   1.00
C50    C     0.14630   0.02240   0.81350   0.01267  Uiso   1.00
C51    C     0.96320   0.95230   0.62830   0.01267  Uiso   1.00
C52    C     0.99610   0.86210   0.60860   0.01267  Uiso   1.00
C53    C     0.10360   0.85200   0.68970   0.01267  Uiso   1.00
C54    C     0.96770   0.64320   0.86333   0.01267  Uiso   1.00
C55    C     0.18010   0.62500   0.03397   0.01267  Uiso   1.00
C56    C     0.00790   0.55740   0.84514   0.01267  Uiso   1.00
C57    C     0.03950   0.03150   0.73150   0.01267  Uiso   1.00
C58    C     0.03700   0.72070   0.96830   0.01267  Uiso   1.00
C59    C     0.11440   0.54820   0.93110   0.01267  Uiso   1.00
C60    C     0.14360   0.71210   0.05360   0.01267  Uiso   1.00
N1     N     0.72491   0.21811   0.29358   0.01267  Uiso   1.00
N2     N     0.72214   0.31794   0.32566   0.01267  Uiso   1.00
N3     N     0.84231   0.39540   0.38017   0.01267  Uiso   1.00
N4     N     0.92734   0.34742   0.38436   0.01267  Uiso   1.00
N5     N     0.19415   0.37646   0.33714   0.01267  Uiso   1.00
N6     N     0.30540   0.35943   0.38214   0.01267  Uiso   1.00
N7     N     0.32864   0.32533   0.29883   0.01267  Uiso   1.00
N8     N     0.23414   0.31832   0.19790   0.01267  Uiso   1.00
N9     N     0.27509   0.78189   0.70642   0.01267  Uiso   1.00
N10    N     0.27786   0.68206   0.67434   0.01267  Uiso   1.00
N11    N     0.15769   0.60460   0.61983   0.01267  Uiso   1.00
N12    N     0.07266   0.65258   0.61564   0.01267  Uiso   1.00
N13    N     0.80585   0.62354   0.66286   0.01267  Uiso   1.00
N14    N     0.69460   0.64057   0.61786   0.01267  Uiso   1.00
N15    N     0.67136   0.67467   0.70117   0.01267  Uiso   1.00
N16    N     0.76586   0.68168   0.80210   0.01267  Uiso   1.00
O1     O     0.41598   0.12762   0.25224   0.01267  Uiso   1.00
O2     O     0.18431   0.35619   0.61946   0.01267  Uiso   1.00
O3     O     0.35568   0.48794   0.61336   0.01267  Uiso   1.00
O4     O     0.28134   0.30770   0.01721   0.01267  Uiso   1.00
O5     O     0.48545   0.33039   0.13583   0.01267  Uiso   1.00
O6     O     0.18129   0.61079   0.41064   0.01267  Uiso   1.00
O7     O     0.39920   0.71879   0.50308   0.01267  Uiso   1.00
O8     O     0.72209   0.38670   0.87196   0.01267  Uiso   1.00
O9     O     0.98136   0.87202   0.24450   0.01267  Uiso   1.00
O10    O     0.54424   0.03336   0.31250   0.01267  Uiso   1.00
O11    O     0.58402   0.87238   0.74776   0.01267  Uiso   1.00
O12    O     0.81569   0.64381   0.38054   0.01267  Uiso   1.00
O13    O     0.64432   0.51206   0.38664   0.01267  Uiso   1.00
O14    O     0.71866   0.69230   0.98279   0.01267  Uiso   1.00
O15    O     0.51455   0.66961   0.86417   0.01267  Uiso   1.00
O16    O     0.81871   0.38921   0.58936   0.01267  Uiso   1.00
O17    O     0.60080   0.28121   0.49692   0.01267  Uiso   1.00
O18    O     0.27791   0.61330   0.12804   0.01267  Uiso   1.00
O19    O     0.01864   0.12798   0.75550   0.01267  Uiso   1.00
O20    O     0.45576   0.96664   0.68750   0.01267  Uiso   1.00
