data_PEPXIS_clean
_audit_creation_date              2014-07-02
_audit_creation_method            'Materials Studio'
_symmetry_space_group_name_H-M    'P1'
_symmetry_Int_Tables_number       1
_symmetry_cell_setting            triclinic
loop_
_symmetry_equiv_pos_as_xyz
  x,y,z
_cell_length_a                    7.5093
_cell_length_b                    9.9120
_cell_length_c                    17.4570
_cell_angle_alpha                 90.0000
_cell_angle_beta                  90.0000
_cell_angle_gamma                 90.0000
loop_
_atom_site_label
_atom_site_type_symbol
_atom_site_fract_x
_atom_site_fract_y
_atom_site_fract_z
_atom_site_U_iso_or_equiv
_atom_site_adp_type
_atom_site_occupancy
Zn1    Zn    0.47228   0.75000   0.73402   0.01267  Uiso   1.00
Zn2    Zn    0.02772   0.25000   0.23402   0.01267  Uiso   1.00
Zn3    Zn    0.52772   0.25000   0.26598   0.01267  Uiso   1.00
Zn4    Zn    0.97228   0.75000   0.76598   0.01267  Uiso   1.00
Zn5    Zn    0.61244   0.25000   0.92227   0.01267  Uiso   1.00
Zn6    Zn    0.88756   0.75000   0.42227   0.01267  Uiso   1.00
Zn7    Zn    0.38756   0.75000   0.07773   0.01267  Uiso   1.00
Zn8    Zn    0.11244   0.25000   0.57773   0.01267  Uiso   1.00
H1     H     0.93700   0.03130   0.87750   0.01267  Uiso   1.00
H2     H     0.44180   0.04420   0.81530   0.01267  Uiso   1.00
H3     H     0.56300   0.96870   0.37750   0.01267  Uiso   1.00
H4     H     0.05820   0.95580   0.31530   0.01267  Uiso   1.00
H5     H     0.06300   0.53130   0.12250   0.01267  Uiso   1.00
H6     H     0.55820   0.54420   0.18470   0.01267  Uiso   1.00
H7     H     0.43700   0.46870   0.62250   0.01267  Uiso   1.00
H8     H     0.94180   0.45580   0.68470   0.01267  Uiso   1.00
H9     H     0.06300   0.96870   0.12250   0.01267  Uiso   1.00
H10    H     0.55820   0.95580   0.18470   0.01267  Uiso   1.00
H11    H     0.43700   0.03130   0.62250   0.01267  Uiso   1.00
H12    H     0.94180   0.04420   0.68470   0.01267  Uiso   1.00
H13    H     0.93700   0.46870   0.87750   0.01267  Uiso   1.00
H14    H     0.44180   0.45580   0.81530   0.01267  Uiso   1.00
H15    H     0.56300   0.53130   0.37750   0.01267  Uiso   1.00
H16    H     0.05820   0.54420   0.31530   0.01267  Uiso   1.00
H17    H     0.52860   0.75000   0.91770   0.01267  Uiso   1.00
H18    H     0.02280   0.75000   0.96180   0.01267  Uiso   1.00
H19    H     0.97140   0.25000   0.41770   0.01267  Uiso   1.00
H20    H     0.47720   0.25000   0.46180   0.01267  Uiso   1.00
H21    H     0.47140   0.25000   0.08230   0.01267  Uiso   1.00
H22    H     0.97720   0.25000   0.03820   0.01267  Uiso   1.00
H23    H     0.02860   0.75000   0.58230   0.01267  Uiso   1.00
H24    H     0.52280   0.75000   0.53820   0.01267  Uiso   1.00
C1     C     0.82860   0.01000   0.85480   0.01267  Uiso   1.00
C2     C     0.55970   0.01720   0.82080   0.01267  Uiso   1.00
C3     C     0.67140   0.99000   0.35480   0.01267  Uiso   1.00
C4     C     0.94030   0.98280   0.32080   0.01267  Uiso   1.00
C5     C     0.17140   0.51000   0.14520   0.01267  Uiso   1.00
C6     C     0.44030   0.51720   0.17920   0.01267  Uiso   1.00
C7     C     0.32860   0.49000   0.64520   0.01267  Uiso   1.00
C8     C     0.05970   0.48280   0.67920   0.01267  Uiso   1.00
C9     C     0.17140   0.99000   0.14520   0.01267  Uiso   1.00
C10    C     0.44030   0.98280   0.17920   0.01267  Uiso   1.00
C11    C     0.32860   0.01000   0.64520   0.01267  Uiso   1.00
C12    C     0.05970   0.01720   0.67920   0.01267  Uiso   1.00
C13    C     0.82860   0.49000   0.85480   0.01267  Uiso   1.00
C14    C     0.55970   0.48280   0.82080   0.01267  Uiso   1.00
C15    C     0.67140   0.51000   0.35480   0.01267  Uiso   1.00
C16    C     0.94030   0.51720   0.32080   0.01267  Uiso   1.00
C17    C     0.40540   0.75000   0.91230   0.01267  Uiso   1.00
C18    C     0.13130   0.75000   0.93610   0.01267  Uiso   1.00
C19    C     0.09460   0.25000   0.41230   0.01267  Uiso   1.00
C20    C     0.36870   0.25000   0.43610   0.01267  Uiso   1.00
C21    C     0.59460   0.25000   0.08770   0.01267  Uiso   1.00
C22    C     0.86870   0.25000   0.06390   0.01267  Uiso   1.00
C23    C     0.90540   0.75000   0.58770   0.01267  Uiso   1.00
C24    C     0.63130   0.75000   0.56390   0.01267  Uiso   1.00
N1     N     0.62640   0.90900   0.78820   0.01267  Uiso   1.00
N2     N     0.67950   0.08460   0.86280   0.01267  Uiso   1.00
N3     N     0.80260   0.90310   0.81080   0.01267  Uiso   1.00
N4     N     0.87360   0.09100   0.28820   0.01267  Uiso   1.00
N5     N     0.82050   0.91540   0.36280   0.01267  Uiso   1.00
N6     N     0.69740   0.09690   0.31080   0.01267  Uiso   1.00
N7     N     0.37360   0.40900   0.21180   0.01267  Uiso   1.00
N8     N     0.32050   0.58460   0.13720   0.01267  Uiso   1.00
N9     N     0.19740   0.40310   0.18920   0.01267  Uiso   1.00
N10    N     0.12640   0.59100   0.71180   0.01267  Uiso   1.00
N11    N     0.17950   0.41540   0.63720   0.01267  Uiso   1.00
N12    N     0.30260   0.59690   0.68920   0.01267  Uiso   1.00
N13    N     0.37360   0.09100   0.21180   0.01267  Uiso   1.00
N14    N     0.32050   0.91540   0.13720   0.01267  Uiso   1.00
N15    N     0.19740   0.09690   0.18920   0.01267  Uiso   1.00
N16    N     0.12640   0.90900   0.71180   0.01267  Uiso   1.00
N17    N     0.17950   0.08460   0.63720   0.01267  Uiso   1.00
N18    N     0.30260   0.90310   0.68920   0.01267  Uiso   1.00
N19    N     0.62640   0.59100   0.78820   0.01267  Uiso   1.00
N20    N     0.67950   0.41540   0.86280   0.01267  Uiso   1.00
N21    N     0.80260   0.59690   0.81080   0.01267  Uiso   1.00
N22    N     0.87360   0.40900   0.28820   0.01267  Uiso   1.00
N23    N     0.82050   0.58460   0.36280   0.01267  Uiso   1.00
N24    N     0.69740   0.40310   0.31080   0.01267  Uiso   1.00
N25    N     0.32340   0.75000   0.84540   0.01267  Uiso   1.00
N26    N     0.14650   0.75000   0.86190   0.01267  Uiso   1.00
N27    N     0.29120   0.75000   0.97180   0.01267  Uiso   1.00
N28    N     0.17660   0.25000   0.34540   0.01267  Uiso   1.00
N29    N     0.35350   0.25000   0.36190   0.01267  Uiso   1.00
N30    N     0.20880   0.25000   0.47180   0.01267  Uiso   1.00
N31    N     0.67660   0.25000   0.15460   0.01267  Uiso   1.00
N32    N     0.85350   0.25000   0.13810   0.01267  Uiso   1.00
N33    N     0.70880   0.25000   0.02820   0.01267  Uiso   1.00
N34    N     0.82340   0.75000   0.65460   0.01267  Uiso   1.00
N35    N     0.64650   0.75000   0.63810   0.01267  Uiso   1.00
N36    N     0.79120   0.75000   0.52820   0.01267  Uiso   1.00
Cl1    Cl    0.31110   0.25000   0.92879   0.01267  Uiso   1.00
Cl2    Cl    0.18890   0.75000   0.42879   0.01267  Uiso   1.00
Cl3    Cl    0.68890   0.75000   0.07121   0.01267  Uiso   1.00
Cl4    Cl    0.81110   0.25000   0.57121   0.01267  Uiso   1.00
