data_PIBPEW_charged
_audit_creation_date              2014-07-02
_audit_creation_method            'Materials Studio'
_symmetry_space_group_name_H-M    'P1'
_symmetry_Int_Tables_number       1
_symmetry_cell_setting            triclinic
loop_
_symmetry_equiv_pos_as_xyz
  x,y,z
_cell_length_a                    18.0373
_cell_length_b                    18.0373
_cell_length_c                    27.2604
_cell_angle_alpha                 90.0000
_cell_angle_beta                  90.0000
_cell_angle_gamma                 90.0000
loop_
_atom_site_label
_atom_site_type_symbol
_atom_site_fract_x
_atom_site_fract_y
_atom_site_fract_z
_atom_site_U_iso_or_equiv
_atom_site_adp_type
_atom_site_occupancy
Cd1    Cd    0.33697   0.74041   0.07002   0.01267  Uiso   1.00
Cd2    Cd    0.66303   0.25959   0.57002   0.01267  Uiso   1.00
Cd3    Cd    0.25959   0.33697   0.32002   0.01267  Uiso   1.00
Cd4    Cd    0.74041   0.66303   0.82002   0.01267  Uiso   1.00
Cd5    Cd    0.66303   0.74041   0.92998   0.01267  Uiso   1.00
Cd6    Cd    0.33697   0.25959   0.42998   0.01267  Uiso   1.00
Cd7    Cd    0.74041   0.33697   0.67998   0.01267  Uiso   1.00
Cd8    Cd    0.25959   0.66303   0.17998   0.01267  Uiso   1.00
Cd9    Cd    0.50000   0.74306   0.00000   0.01267  Uiso   1.00
Cd10   Cd    0.50000   0.25694   0.50000   0.01267  Uiso   1.00
Cd11   Cd    0.25694   0.50000   0.25000   0.01267  Uiso   1.00
Cd12   Cd    0.74306   0.50000   0.75000   0.01267  Uiso   1.00
H1     H     0.61860   0.74770   0.12920   0.01267  Uiso   1.00
H2     H     0.70600   0.70300   0.18250   0.01267  Uiso   1.00
H3     H     0.54860   0.57930   0.25110   0.01267  Uiso   1.00
H4     H     0.46120   0.62410   0.19600   0.01267  Uiso   1.00
H5     H     0.78220   0.38330   0.44770   0.01267  Uiso   1.00
H6     H     0.81260   0.45070   0.37760   0.01267  Uiso   1.00
H7     H     0.59410   0.50580   0.36220   0.01267  Uiso   1.00
H8     H     0.56750   0.43270   0.43110   0.01267  Uiso   1.00
H9     H     0.05700   0.56360   0.30300   0.01267  Uiso   1.00
H10    H     0.93420   0.55360   0.32540   0.01267  Uiso   1.00
H11    H     0.87970   0.64620   0.19850   0.01267  Uiso   1.00
H12    H     0.00350   0.65590   0.17560   0.01267  Uiso   1.00
H13    H     0.38140   0.25230   0.62920   0.01267  Uiso   1.00
H14    H     0.29400   0.29700   0.68250   0.01267  Uiso   1.00
H15    H     0.45140   0.42070   0.75110   0.01267  Uiso   1.00
H16    H     0.53880   0.37590   0.69600   0.01267  Uiso   1.00
H17    H     0.21780   0.61670   0.94770   0.01267  Uiso   1.00
H18    H     0.18740   0.54930   0.87760   0.01267  Uiso   1.00
H19    H     0.40590   0.49420   0.86220   0.01267  Uiso   1.00
H20    H     0.43250   0.56730   0.93110   0.01267  Uiso   1.00
H21    H     0.94300   0.43640   0.80300   0.01267  Uiso   1.00
H22    H     0.06580   0.44640   0.82540   0.01267  Uiso   1.00
H23    H     0.12030   0.35380   0.69850   0.01267  Uiso   1.00
H24    H     0.99650   0.34410   0.67560   0.01267  Uiso   1.00
H25    H     0.25230   0.61860   0.37920   0.01267  Uiso   1.00
H26    H     0.29700   0.70600   0.43250   0.01267  Uiso   1.00
H27    H     0.42070   0.54860   0.50110   0.01267  Uiso   1.00
H28    H     0.37590   0.46120   0.44600   0.01267  Uiso   1.00
H29    H     0.61670   0.78220   0.69770   0.01267  Uiso   1.00
H30    H     0.54930   0.81260   0.62760   0.01267  Uiso   1.00
H31    H     0.49420   0.59410   0.61220   0.01267  Uiso   1.00
H32    H     0.56730   0.56750   0.68110   0.01267  Uiso   1.00
H33    H     0.43640   0.05700   0.55300   0.01267  Uiso   1.00
H34    H     0.44640   0.93420   0.57540   0.01267  Uiso   1.00
H35    H     0.35380   0.87970   0.44850   0.01267  Uiso   1.00
H36    H     0.34410   0.00350   0.42560   0.01267  Uiso   1.00
H37    H     0.74770   0.38140   0.87920   0.01267  Uiso   1.00
H38    H     0.70300   0.29400   0.93250   0.01267  Uiso   1.00
H39    H     0.57930   0.45140   0.00110   0.01267  Uiso   1.00
H40    H     0.62410   0.53880   0.94600   0.01267  Uiso   1.00
H41    H     0.38330   0.21780   0.19770   0.01267  Uiso   1.00
H42    H     0.45070   0.18740   0.12760   0.01267  Uiso   1.00
H43    H     0.50580   0.40590   0.11220   0.01267  Uiso   1.00
H44    H     0.43270   0.43250   0.18110   0.01267  Uiso   1.00
H45    H     0.56360   0.94300   0.05300   0.01267  Uiso   1.00
H46    H     0.55360   0.06580   0.07540   0.01267  Uiso   1.00
H47    H     0.64620   0.12030   0.94850   0.01267  Uiso   1.00
H48    H     0.65590   0.99650   0.92560   0.01267  Uiso   1.00
H49    H     0.38140   0.74770   0.87080   0.01267  Uiso   1.00
H50    H     0.29400   0.70300   0.81750   0.01267  Uiso   1.00
H51    H     0.45140   0.57930   0.74890   0.01267  Uiso   1.00
H52    H     0.53880   0.62410   0.80400   0.01267  Uiso   1.00
H53    H     0.21780   0.38330   0.55230   0.01267  Uiso   1.00
H54    H     0.18740   0.45070   0.62240   0.01267  Uiso   1.00
H55    H     0.40590   0.50580   0.63780   0.01267  Uiso   1.00
H56    H     0.43250   0.43270   0.56890   0.01267  Uiso   1.00
H57    H     0.94300   0.56360   0.69700   0.01267  Uiso   1.00
H58    H     0.06580   0.55360   0.67460   0.01267  Uiso   1.00
H59    H     0.12030   0.64620   0.80150   0.01267  Uiso   1.00
H60    H     0.99650   0.65590   0.82440   0.01267  Uiso   1.00
H61    H     0.61860   0.25230   0.37080   0.01267  Uiso   1.00
H62    H     0.70600   0.29700   0.31750   0.01267  Uiso   1.00
H63    H     0.54860   0.42070   0.24890   0.01267  Uiso   1.00
H64    H     0.46120   0.37590   0.30400   0.01267  Uiso   1.00
H65    H     0.78220   0.61670   0.05230   0.01267  Uiso   1.00
H66    H     0.81260   0.54930   0.12240   0.01267  Uiso   1.00
H67    H     0.59410   0.49420   0.13780   0.01267  Uiso   1.00
H68    H     0.56750   0.56730   0.06890   0.01267  Uiso   1.00
H69    H     0.05700   0.43640   0.19700   0.01267  Uiso   1.00
H70    H     0.93420   0.44640   0.17460   0.01267  Uiso   1.00
H71    H     0.87970   0.35380   0.30150   0.01267  Uiso   1.00
H72    H     0.00350   0.34410   0.32440   0.01267  Uiso   1.00
H73    H     0.74770   0.61860   0.62080   0.01267  Uiso   1.00
H74    H     0.70300   0.70600   0.56750   0.01267  Uiso   1.00
H75    H     0.57930   0.54860   0.49890   0.01267  Uiso   1.00
H76    H     0.62410   0.46120   0.55400   0.01267  Uiso   1.00
H77    H     0.38330   0.78220   0.30230   0.01267  Uiso   1.00
H78    H     0.45070   0.81260   0.37240   0.01267  Uiso   1.00
H79    H     0.50580   0.59410   0.38780   0.01267  Uiso   1.00
H80    H     0.43270   0.56750   0.31890   0.01267  Uiso   1.00
H81    H     0.56360   0.05700   0.44700   0.01267  Uiso   1.00
H82    H     0.55360   0.93420   0.42460   0.01267  Uiso   1.00
H83    H     0.64620   0.87970   0.55150   0.01267  Uiso   1.00
H84    H     0.65590   0.00350   0.57440   0.01267  Uiso   1.00
H85    H     0.25230   0.38140   0.12080   0.01267  Uiso   1.00
H86    H     0.29700   0.29400   0.06750   0.01267  Uiso   1.00
H87    H     0.42070   0.45140   0.99890   0.01267  Uiso   1.00
H88    H     0.37590   0.53880   0.05400   0.01267  Uiso   1.00
H89    H     0.61670   0.21780   0.80230   0.01267  Uiso   1.00
H90    H     0.54930   0.18740   0.87240   0.01267  Uiso   1.00
H91    H     0.49420   0.40590   0.88780   0.01267  Uiso   1.00
H92    H     0.56730   0.43250   0.81890   0.01267  Uiso   1.00
H93    H     0.43640   0.94300   0.94700   0.01267  Uiso   1.00
H94    H     0.44640   0.06580   0.92460   0.01267  Uiso   1.00
H95    H     0.35380   0.12030   0.05150   0.01267  Uiso   1.00
H96    H     0.34410   0.99650   0.07440   0.01267  Uiso   1.00
C1     C     0.47440   0.71370   0.11970   0.01267  Uiso   1.00
C2     C     0.21720   0.80430   0.14490   0.01267  Uiso   1.00
C3     C     0.53160   0.68850   0.15710   0.01267  Uiso   1.00
C4     C     0.12400   0.80800   0.14070   0.01267  Uiso   1.00
C5     C     0.60520   0.71310   0.15350   0.01267  Uiso   1.00
C6     C     0.65660   0.68690   0.18500   0.01267  Uiso   1.00
C7     C     0.63640   0.63450   0.22240   0.01267  Uiso   1.00
C8     C     0.56290   0.61240   0.22630   0.01267  Uiso   1.00
C9     C     0.51090   0.63930   0.19350   0.01267  Uiso   1.00
C10    C     0.69420   0.60470   0.25650   0.01267  Uiso   1.00
C11    C     0.65360   0.35240   0.48660   0.01267  Uiso   1.00
C12    C     0.67050   0.40270   0.44440   0.01267  Uiso   1.00
C13    C     0.74510   0.40790   0.42980   0.01267  Uiso   1.00
C14    C     0.76340   0.44940   0.38890   0.01267  Uiso   1.00
C15    C     0.70810   0.48960   0.36440   0.01267  Uiso   1.00
C16    C     0.63240   0.48180   0.37940   0.01267  Uiso   1.00
C17    C     0.61680   0.43770   0.42040   0.01267  Uiso   1.00
C18    C     0.72650   0.53860   0.32200   0.01267  Uiso   1.00
C19    C     0.12480   0.61440   0.22670   0.01267  Uiso   1.00
C20    C     0.04290   0.61020   0.23900   0.01267  Uiso   1.00
C21    C     0.02050   0.58090   0.28120   0.01267  Uiso   1.00
C22    C     0.94730   0.57410   0.29490   0.01267  Uiso   1.00
C23    C     0.89380   0.59830   0.26260   0.01267  Uiso   1.00
C24    C     0.91620   0.62850   0.22010   0.01267  Uiso   1.00
C25    C     0.99010   0.63530   0.20600   0.01267  Uiso   1.00
C26    C     0.81610   0.58720   0.27330   0.01267  Uiso   1.00
C27    C     0.52560   0.28630   0.61970   0.01267  Uiso   1.00
C28    C     0.78280   0.19570   0.64490   0.01267  Uiso   1.00
C29    C     0.46840   0.31150   0.65710   0.01267  Uiso   1.00
C30    C     0.87600   0.19200   0.64070   0.01267  Uiso   1.00
C31    C     0.39480   0.28690   0.65350   0.01267  Uiso   1.00
C32    C     0.34340   0.31310   0.68500   0.01267  Uiso   1.00
C33    C     0.36360   0.36550   0.72240   0.01267  Uiso   1.00
C34    C     0.43710   0.38760   0.72630   0.01267  Uiso   1.00
C35    C     0.48910   0.36070   0.69350   0.01267  Uiso   1.00
C36    C     0.30580   0.39530   0.75650   0.01267  Uiso   1.00
C37    C     0.34640   0.64760   0.98660   0.01267  Uiso   1.00
C38    C     0.32950   0.59730   0.94440   0.01267  Uiso   1.00
C39    C     0.25490   0.59210   0.92980   0.01267  Uiso   1.00
C40    C     0.23660   0.55060   0.88890   0.01267  Uiso   1.00
C41    C     0.29190   0.51040   0.86440   0.01267  Uiso   1.00
C42    C     0.36760   0.51820   0.87940   0.01267  Uiso   1.00
C43    C     0.38320   0.56230   0.92040   0.01267  Uiso   1.00
C44    C     0.27350   0.46140   0.82200   0.01267  Uiso   1.00
C45    C     0.87520   0.38560   0.72670   0.01267  Uiso   1.00
C46    C     0.95710   0.38980   0.73900   0.01267  Uiso   1.00
C47    C     0.97950   0.41910   0.78120   0.01267  Uiso   1.00
C48    C     0.05270   0.42590   0.79490   0.01267  Uiso   1.00
C49    C     0.10620   0.40170   0.76260   0.01267  Uiso   1.00
C50    C     0.08380   0.37150   0.72010   0.01267  Uiso   1.00
C51    C     0.00990   0.36470   0.70600   0.01267  Uiso   1.00
C52    C     0.18390   0.41280   0.77330   0.01267  Uiso   1.00
C53    C     0.28630   0.47440   0.36970   0.01267  Uiso   1.00
C54    C     0.19570   0.21720   0.39490   0.01267  Uiso   1.00
C55    C     0.31150   0.53160   0.40710   0.01267  Uiso   1.00
C56    C     0.19200   0.12400   0.39070   0.01267  Uiso   1.00
C57    C     0.28690   0.60520   0.40350   0.01267  Uiso   1.00
C58    C     0.31310   0.65660   0.43500   0.01267  Uiso   1.00
C59    C     0.36550   0.63640   0.47240   0.01267  Uiso   1.00
C60    C     0.38760   0.56290   0.47630   0.01267  Uiso   1.00
C61    C     0.36070   0.51090   0.44350   0.01267  Uiso   1.00
C62    C     0.39530   0.69420   0.50650   0.01267  Uiso   1.00
C63    C     0.64760   0.65360   0.73660   0.01267  Uiso   1.00
C64    C     0.59730   0.67050   0.69440   0.01267  Uiso   1.00
C65    C     0.59210   0.74510   0.67980   0.01267  Uiso   1.00
C66    C     0.55060   0.76340   0.63890   0.01267  Uiso   1.00
C67    C     0.51040   0.70810   0.61440   0.01267  Uiso   1.00
C68    C     0.51820   0.63240   0.62940   0.01267  Uiso   1.00
C69    C     0.56230   0.61680   0.67040   0.01267  Uiso   1.00
C70    C     0.46140   0.72650   0.57200   0.01267  Uiso   1.00
C71    C     0.38560   0.12480   0.47670   0.01267  Uiso   1.00
C72    C     0.38980   0.04290   0.48900   0.01267  Uiso   1.00
C73    C     0.41910   0.02050   0.53120   0.01267  Uiso   1.00
C74    C     0.42590   0.94730   0.54490   0.01267  Uiso   1.00
C75    C     0.40170   0.89380   0.51260   0.01267  Uiso   1.00
C76    C     0.37150   0.91620   0.47010   0.01267  Uiso   1.00
C77    C     0.36470   0.99010   0.45600   0.01267  Uiso   1.00
C78    C     0.41280   0.81610   0.52330   0.01267  Uiso   1.00
C79    C     0.71370   0.52560   0.86970   0.01267  Uiso   1.00
C80    C     0.80430   0.78280   0.89490   0.01267  Uiso   1.00
C81    C     0.68850   0.46840   0.90710   0.01267  Uiso   1.00
C82    C     0.80800   0.87600   0.89070   0.01267  Uiso   1.00
C83    C     0.71310   0.39480   0.90350   0.01267  Uiso   1.00
C84    C     0.68690   0.34340   0.93500   0.01267  Uiso   1.00
C85    C     0.63450   0.36360   0.97240   0.01267  Uiso   1.00
C86    C     0.61240   0.43710   0.97630   0.01267  Uiso   1.00
C87    C     0.63930   0.48910   0.94350   0.01267  Uiso   1.00
C88    C     0.60470   0.30580   0.00650   0.01267  Uiso   1.00
C89    C     0.35240   0.34640   0.23660   0.01267  Uiso   1.00
C90    C     0.40270   0.32950   0.19440   0.01267  Uiso   1.00
C91    C     0.40790   0.25490   0.17980   0.01267  Uiso   1.00
C92    C     0.44940   0.23660   0.13890   0.01267  Uiso   1.00
C93    C     0.48960   0.29190   0.11440   0.01267  Uiso   1.00
C94    C     0.48180   0.36760   0.12940   0.01267  Uiso   1.00
C95    C     0.43770   0.38320   0.17040   0.01267  Uiso   1.00
C96    C     0.53860   0.27350   0.07200   0.01267  Uiso   1.00
C97    C     0.61440   0.87520   0.97670   0.01267  Uiso   1.00
C98    C     0.61020   0.95710   0.98900   0.01267  Uiso   1.00
C99    C     0.58090   0.97950   0.03120   0.01267  Uiso   1.00
C100   C     0.57410   0.05270   0.04490   0.01267  Uiso   1.00
C101   C     0.59830   0.10620   0.01260   0.01267  Uiso   1.00
C102   C     0.62850   0.08380   0.97010   0.01267  Uiso   1.00
C103   C     0.63530   0.00990   0.95600   0.01267  Uiso   1.00
C104   C     0.58720   0.18390   0.02330   0.01267  Uiso   1.00
C105   C     0.52560   0.71370   0.88030   0.01267  Uiso   1.00
C106   C     0.78280   0.80430   0.85510   0.01267  Uiso   1.00
C107   C     0.46840   0.68850   0.84290   0.01267  Uiso   1.00
C108   C     0.87600   0.80800   0.85930   0.01267  Uiso   1.00
C109   C     0.39480   0.71310   0.84650   0.01267  Uiso   1.00
C110   C     0.34340   0.68690   0.81500   0.01267  Uiso   1.00
C111   C     0.36360   0.63450   0.77760   0.01267  Uiso   1.00
C112   C     0.43710   0.61240   0.77370   0.01267  Uiso   1.00
C113   C     0.48910   0.63930   0.80650   0.01267  Uiso   1.00
C114   C     0.30580   0.60470   0.74350   0.01267  Uiso   1.00
C115   C     0.34640   0.35240   0.51340   0.01267  Uiso   1.00
C116   C     0.32950   0.40270   0.55560   0.01267  Uiso   1.00
C117   C     0.25490   0.40790   0.57020   0.01267  Uiso   1.00
C118   C     0.23660   0.44940   0.61110   0.01267  Uiso   1.00
C119   C     0.29190   0.48960   0.63560   0.01267  Uiso   1.00
C120   C     0.36760   0.48180   0.62060   0.01267  Uiso   1.00
C121   C     0.38320   0.43770   0.57960   0.01267  Uiso   1.00
C122   C     0.27350   0.53860   0.67800   0.01267  Uiso   1.00
C123   C     0.87520   0.61440   0.77330   0.01267  Uiso   1.00
C124   C     0.95710   0.61020   0.76100   0.01267  Uiso   1.00
C125   C     0.97950   0.58090   0.71880   0.01267  Uiso   1.00
C126   C     0.05270   0.57410   0.70510   0.01267  Uiso   1.00
C127   C     0.10620   0.59830   0.73740   0.01267  Uiso   1.00
C128   C     0.08380   0.62850   0.77990   0.01267  Uiso   1.00
C129   C     0.00990   0.63530   0.79400   0.01267  Uiso   1.00
C130   C     0.18390   0.58720   0.72670   0.01267  Uiso   1.00
C131   C     0.47440   0.28630   0.38030   0.01267  Uiso   1.00
C132   C     0.21720   0.19570   0.35510   0.01267  Uiso   1.00
C133   C     0.53160   0.31150   0.34290   0.01267  Uiso   1.00
C134   C     0.12400   0.19200   0.35930   0.01267  Uiso   1.00
C135   C     0.60520   0.28690   0.34650   0.01267  Uiso   1.00
C136   C     0.65660   0.31310   0.31500   0.01267  Uiso   1.00
C137   C     0.63640   0.36550   0.27760   0.01267  Uiso   1.00
C138   C     0.56290   0.38760   0.27370   0.01267  Uiso   1.00
C139   C     0.51090   0.36070   0.30650   0.01267  Uiso   1.00
C140   C     0.69420   0.39530   0.24350   0.01267  Uiso   1.00
C141   C     0.65360   0.64760   0.01340   0.01267  Uiso   1.00
C142   C     0.67050   0.59730   0.05560   0.01267  Uiso   1.00
C143   C     0.74510   0.59210   0.07020   0.01267  Uiso   1.00
C144   C     0.76340   0.55060   0.11110   0.01267  Uiso   1.00
C145   C     0.70810   0.51040   0.13560   0.01267  Uiso   1.00
C146   C     0.63240   0.51820   0.12060   0.01267  Uiso   1.00
C147   C     0.61680   0.56230   0.07960   0.01267  Uiso   1.00
C148   C     0.72650   0.46140   0.17800   0.01267  Uiso   1.00
C149   C     0.12480   0.38560   0.27330   0.01267  Uiso   1.00
C150   C     0.04290   0.38980   0.26100   0.01267  Uiso   1.00
C151   C     0.02050   0.41910   0.21880   0.01267  Uiso   1.00
C152   C     0.94730   0.42590   0.20510   0.01267  Uiso   1.00
C153   C     0.89380   0.40170   0.23740   0.01267  Uiso   1.00
C154   C     0.91620   0.37150   0.27990   0.01267  Uiso   1.00
C155   C     0.99010   0.36470   0.29400   0.01267  Uiso   1.00
C156   C     0.81610   0.41280   0.22670   0.01267  Uiso   1.00
C157   C     0.71370   0.47440   0.63030   0.01267  Uiso   1.00
C158   C     0.80430   0.21720   0.60510   0.01267  Uiso   1.00
C159   C     0.68850   0.53160   0.59290   0.01267  Uiso   1.00
C160   C     0.80800   0.12400   0.60930   0.01267  Uiso   1.00
C161   C     0.71310   0.60520   0.59650   0.01267  Uiso   1.00
C162   C     0.68690   0.65660   0.56500   0.01267  Uiso   1.00
C163   C     0.63450   0.63640   0.52760   0.01267  Uiso   1.00
C164   C     0.61240   0.56290   0.52370   0.01267  Uiso   1.00
C165   C     0.63930   0.51090   0.55650   0.01267  Uiso   1.00
C166   C     0.60470   0.69420   0.49350   0.01267  Uiso   1.00
C167   C     0.35240   0.65360   0.26340   0.01267  Uiso   1.00
C168   C     0.40270   0.67050   0.30560   0.01267  Uiso   1.00
C169   C     0.40790   0.74510   0.32020   0.01267  Uiso   1.00
C170   C     0.44940   0.76340   0.36110   0.01267  Uiso   1.00
C171   C     0.48960   0.70810   0.38560   0.01267  Uiso   1.00
C172   C     0.48180   0.63240   0.37060   0.01267  Uiso   1.00
C173   C     0.43770   0.61680   0.32960   0.01267  Uiso   1.00
C174   C     0.53860   0.72650   0.42800   0.01267  Uiso   1.00
C175   C     0.61440   0.12480   0.52330   0.01267  Uiso   1.00
C176   C     0.61020   0.04290   0.51100   0.01267  Uiso   1.00
C177   C     0.58090   0.02050   0.46880   0.01267  Uiso   1.00
C178   C     0.57410   0.94730   0.45510   0.01267  Uiso   1.00
C179   C     0.59830   0.89380   0.48740   0.01267  Uiso   1.00
C180   C     0.62850   0.91620   0.52990   0.01267  Uiso   1.00
C181   C     0.63530   0.99010   0.54400   0.01267  Uiso   1.00
C182   C     0.58720   0.81610   0.47670   0.01267  Uiso   1.00
C183   C     0.28630   0.52560   0.13030   0.01267  Uiso   1.00
C184   C     0.19570   0.78280   0.10510   0.01267  Uiso   1.00
C185   C     0.31150   0.46840   0.09290   0.01267  Uiso   1.00
C186   C     0.19200   0.87600   0.10930   0.01267  Uiso   1.00
C187   C     0.28690   0.39480   0.09650   0.01267  Uiso   1.00
C188   C     0.31310   0.34340   0.06500   0.01267  Uiso   1.00
C189   C     0.36550   0.36360   0.02760   0.01267  Uiso   1.00
C190   C     0.38760   0.43710   0.02370   0.01267  Uiso   1.00
C191   C     0.36070   0.48910   0.05650   0.01267  Uiso   1.00
C192   C     0.39530   0.30580   0.99350   0.01267  Uiso   1.00
C193   C     0.64760   0.34640   0.76340   0.01267  Uiso   1.00
C194   C     0.59730   0.32950   0.80560   0.01267  Uiso   1.00
C195   C     0.59210   0.25490   0.82020   0.01267  Uiso   1.00
C196   C     0.55060   0.23660   0.86110   0.01267  Uiso   1.00
C197   C     0.51040   0.29190   0.88560   0.01267  Uiso   1.00
C198   C     0.51820   0.36760   0.87060   0.01267  Uiso   1.00
C199   C     0.56230   0.38320   0.82960   0.01267  Uiso   1.00
C200   C     0.46140   0.27350   0.92800   0.01267  Uiso   1.00
C201   C     0.38560   0.87520   0.02330   0.01267  Uiso   1.00
C202   C     0.38980   0.95710   0.01100   0.01267  Uiso   1.00
C203   C     0.41910   0.97950   0.96880   0.01267  Uiso   1.00
C204   C     0.42590   0.05270   0.95510   0.01267  Uiso   1.00
C205   C     0.40170   0.10620   0.98740   0.01267  Uiso   1.00
C206   C     0.37150   0.08380   0.02990   0.01267  Uiso   1.00
C207   C     0.36470   0.00990   0.04400   0.01267  Uiso   1.00
C208   C     0.41280   0.18390   0.97670   0.01267  Uiso   1.00
N1     N     0.76450   0.61940   0.24450   0.01267  Uiso   1.00
N2     N     0.79880   0.54850   0.31490   0.01267  Uiso   1.00
N3     N     0.67120   0.56520   0.29440   0.01267  Uiso   1.00
N4     N     0.23550   0.38060   0.74450   0.01267  Uiso   1.00
N5     N     0.20120   0.45150   0.81490   0.01267  Uiso   1.00
N6     N     0.32880   0.43480   0.79440   0.01267  Uiso   1.00
N7     N     0.38060   0.76450   0.49450   0.01267  Uiso   1.00
N8     N     0.45150   0.79880   0.56490   0.01267  Uiso   1.00
N9     N     0.43480   0.67120   0.54440   0.01267  Uiso   1.00
N10    N     0.61940   0.23550   0.99450   0.01267  Uiso   1.00
N11    N     0.54850   0.20120   0.06490   0.01267  Uiso   1.00
N12    N     0.56520   0.32880   0.04440   0.01267  Uiso   1.00
N13    N     0.23550   0.61940   0.75550   0.01267  Uiso   1.00
N14    N     0.20120   0.54850   0.68510   0.01267  Uiso   1.00
N15    N     0.32880   0.56520   0.70560   0.01267  Uiso   1.00
N16    N     0.76450   0.38060   0.25550   0.01267  Uiso   1.00
N17    N     0.79880   0.45150   0.18510   0.01267  Uiso   1.00
N18    N     0.67120   0.43480   0.20560   0.01267  Uiso   1.00
N19    N     0.61940   0.76450   0.50550   0.01267  Uiso   1.00
N20    N     0.54850   0.79880   0.43510   0.01267  Uiso   1.00
N21    N     0.56520   0.67120   0.45560   0.01267  Uiso   1.00
N22    N     0.38060   0.23550   0.00550   0.01267  Uiso   1.00
N23    N     0.45150   0.20120   0.93510   0.01267  Uiso   1.00
N24    N     0.43480   0.32880   0.95560   0.01267  Uiso   1.00
O1     O     0.40860   0.70280   0.12950   0.01267  Uiso   1.00
O2     O     0.21260   0.80320   0.18980   0.01267  Uiso   1.00
O3     O     0.49840   0.74610   0.08260   0.01267  Uiso   1.00
O4     O     0.58820   0.34660   0.50170   0.01267  Uiso   1.00
O5     O     0.70750   0.32030   0.50800   0.01267  Uiso   1.00
O6     O     0.17070   0.59040   0.25420   0.01267  Uiso   1.00
O7     O     0.13850   0.64710   0.18400   0.01267  Uiso   1.00
O8     O     0.59140   0.29720   0.62950   0.01267  Uiso   1.00
O9     O     0.78740   0.19680   0.68980   0.01267  Uiso   1.00
O10    O     0.50160   0.25390   0.58260   0.01267  Uiso   1.00
O11    O     0.41180   0.65340   0.00170   0.01267  Uiso   1.00
O12    O     0.29250   0.67970   0.00800   0.01267  Uiso   1.00
O13    O     0.82930   0.40960   0.75420   0.01267  Uiso   1.00
O14    O     0.86150   0.35290   0.68400   0.01267  Uiso   1.00
O15    O     0.29720   0.40860   0.37950   0.01267  Uiso   1.00
O16    O     0.19680   0.21260   0.43980   0.01267  Uiso   1.00
O17    O     0.25390   0.49840   0.33260   0.01267  Uiso   1.00
O18    O     0.65340   0.58820   0.75170   0.01267  Uiso   1.00
O19    O     0.67970   0.70750   0.75800   0.01267  Uiso   1.00
O20    O     0.40960   0.17070   0.50420   0.01267  Uiso   1.00
O21    O     0.35290   0.13850   0.43400   0.01267  Uiso   1.00
O22    O     0.70280   0.59140   0.87950   0.01267  Uiso   1.00
O23    O     0.80320   0.78740   0.93980   0.01267  Uiso   1.00
O24    O     0.74610   0.50160   0.83260   0.01267  Uiso   1.00
O25    O     0.34660   0.41180   0.25170   0.01267  Uiso   1.00
O26    O     0.32030   0.29250   0.25800   0.01267  Uiso   1.00
O27    O     0.59040   0.82930   0.00420   0.01267  Uiso   1.00
O28    O     0.64710   0.86150   0.93400   0.01267  Uiso   1.00
O29    O     0.59140   0.70280   0.87050   0.01267  Uiso   1.00
O30    O     0.78740   0.80320   0.81020   0.01267  Uiso   1.00
O31    O     0.50160   0.74610   0.91740   0.01267  Uiso   1.00
O32    O     0.41180   0.34660   0.49830   0.01267  Uiso   1.00
O33    O     0.29250   0.32030   0.49200   0.01267  Uiso   1.00
O34    O     0.82930   0.59040   0.74580   0.01267  Uiso   1.00
O35    O     0.86150   0.64710   0.81600   0.01267  Uiso   1.00
O36    O     0.40860   0.29720   0.37050   0.01267  Uiso   1.00
O37    O     0.21260   0.19680   0.31020   0.01267  Uiso   1.00
O38    O     0.49840   0.25390   0.41740   0.01267  Uiso   1.00
O39    O     0.58820   0.65340   0.99830   0.01267  Uiso   1.00
O40    O     0.70750   0.67970   0.99200   0.01267  Uiso   1.00
O41    O     0.17070   0.40960   0.24580   0.01267  Uiso   1.00
O42    O     0.13850   0.35290   0.31600   0.01267  Uiso   1.00
O43    O     0.70280   0.40860   0.62050   0.01267  Uiso   1.00
O44    O     0.80320   0.21260   0.56020   0.01267  Uiso   1.00
O45    O     0.74610   0.49840   0.66740   0.01267  Uiso   1.00
O46    O     0.34660   0.58820   0.24830   0.01267  Uiso   1.00
O47    O     0.32030   0.70750   0.24200   0.01267  Uiso   1.00
O48    O     0.59040   0.17070   0.49580   0.01267  Uiso   1.00
O49    O     0.64710   0.13850   0.56600   0.01267  Uiso   1.00
O50    O     0.29720   0.59140   0.12050   0.01267  Uiso   1.00
O51    O     0.19680   0.78740   0.06020   0.01267  Uiso   1.00
O52    O     0.25390   0.50160   0.16740   0.01267  Uiso   1.00
O53    O     0.65340   0.41180   0.74830   0.01267  Uiso   1.00
O54    O     0.67970   0.29250   0.74200   0.01267  Uiso   1.00
O55    O     0.40960   0.82930   0.99580   0.01267  Uiso   1.00
O56    O     0.35290   0.86150   0.06600   0.01267  Uiso   1.00
O57    O     0.24580   0.75420   0.12500   0.01267  Uiso   1.00
O58    O     0.75420   0.24580   0.62500   0.01267  Uiso   1.00
O59    O     0.24580   0.24580   0.37500   0.01267  Uiso   1.00
O60    O     0.75420   0.75420   0.87500   0.01267  Uiso   1.00
