data_PIFPIE_clean
_audit_creation_date              2014-07-02
_audit_creation_method            'Materials Studio'
_symmetry_space_group_name_H-M    'P1'
_symmetry_Int_Tables_number       1
_symmetry_cell_setting            triclinic
loop_
_symmetry_equiv_pos_as_xyz
  x,y,z
_cell_length_a                    14.7201
_cell_length_b                    14.7201
_cell_length_c                    16.8000
_cell_angle_alpha                 102.4090
_cell_angle_beta                  102.4090
_cell_angle_gamma                 115.8620
loop_
_atom_site_label
_atom_site_type_symbol
_atom_site_fract_x
_atom_site_fract_y
_atom_site_fract_z
_atom_site_U_iso_or_equiv
_atom_site_adp_type
_atom_site_occupancy
Zn1    Zn    0.52586   0.92474   0.91827   0.01267  Uiso   1.00
Zn2    Zn    0.07526   0.47414   0.58173   0.01267  Uiso   1.00
Zn3    Zn    0.47414   0.07526   0.08173   0.01267  Uiso   1.00
Zn4    Zn    0.92474   0.52586   0.41827   0.01267  Uiso   1.00
Zn5    Zn    0.32863   0.67137   0.75000   0.01267  Uiso   1.00
Zn6    Zn    0.67137   0.32863   0.25000   0.01267  Uiso   1.00
H1     H     0.49120   0.54780   0.83700   0.01267  Uiso   1.00
H2     H     0.58590   0.45850   0.84710   0.01267  Uiso   1.00
H3     H     0.86190   0.73670   0.92590   0.01267  Uiso   1.00
H4     H     0.76560   0.82540   0.91280   0.01267  Uiso   1.00
H5     H     0.12400   0.60600   0.91220   0.01267  Uiso   1.00
H6     H     0.98690   0.57430   0.96860   0.01267  Uiso   1.00
H7     H     0.80170   0.55790   0.74850   0.01267  Uiso   1.00
H8     H     0.93760   0.58700   0.69180   0.01267  Uiso   1.00
H9     H     0.61330   0.33110   0.03070   0.01267  Uiso   1.00
H10    H     0.69610   0.49050   0.00640   0.01267  Uiso   1.00
H11    H     0.79700   0.35660   0.83850   0.01267  Uiso   1.00
H12    H     0.72360   0.20140   0.87130   0.01267  Uiso   1.00
H13    H     0.45220   0.50880   0.66300   0.01267  Uiso   1.00
H14    H     0.54150   0.41410   0.65290   0.01267  Uiso   1.00
H15    H     0.26330   0.13810   0.57410   0.01267  Uiso   1.00
H16    H     0.17460   0.23440   0.58720   0.01267  Uiso   1.00
H17    H     0.39400   0.87600   0.58780   0.01267  Uiso   1.00
H18    H     0.42570   0.01310   0.53140   0.01267  Uiso   1.00
H19    H     0.44210   0.19830   0.75150   0.01267  Uiso   1.00
H20    H     0.41300   0.06240   0.80820   0.01267  Uiso   1.00
H21    H     0.66890   0.38670   0.46930   0.01267  Uiso   1.00
H22    H     0.50950   0.30390   0.49360   0.01267  Uiso   1.00
H23    H     0.64340   0.20300   0.66150   0.01267  Uiso   1.00
H24    H     0.79860   0.27640   0.62870   0.01267  Uiso   1.00
H25    H     0.50880   0.45220   0.16300   0.01267  Uiso   1.00
H26    H     0.41410   0.54150   0.15290   0.01267  Uiso   1.00
H27    H     0.13810   0.26330   0.07410   0.01267  Uiso   1.00
H28    H     0.23440   0.17460   0.08720   0.01267  Uiso   1.00
H29    H     0.87600   0.39400   0.08780   0.01267  Uiso   1.00
H30    H     0.01310   0.42570   0.03140   0.01267  Uiso   1.00
H31    H     0.19830   0.44210   0.25150   0.01267  Uiso   1.00
H32    H     0.06240   0.41300   0.30820   0.01267  Uiso   1.00
H33    H     0.38670   0.66890   0.96930   0.01267  Uiso   1.00
H34    H     0.30390   0.50950   0.99360   0.01267  Uiso   1.00
H35    H     0.20300   0.64340   0.16150   0.01267  Uiso   1.00
H36    H     0.27640   0.79860   0.12870   0.01267  Uiso   1.00
H37    H     0.54780   0.49120   0.33700   0.01267  Uiso   1.00
H38    H     0.45850   0.58590   0.34710   0.01267  Uiso   1.00
H39    H     0.73670   0.86190   0.42590   0.01267  Uiso   1.00
H40    H     0.82540   0.76560   0.41280   0.01267  Uiso   1.00
H41    H     0.60600   0.12400   0.41220   0.01267  Uiso   1.00
H42    H     0.57430   0.98690   0.46860   0.01267  Uiso   1.00
H43    H     0.55790   0.80170   0.24850   0.01267  Uiso   1.00
H44    H     0.58700   0.93760   0.19180   0.01267  Uiso   1.00
H45    H     0.33110   0.61330   0.53070   0.01267  Uiso   1.00
H46    H     0.49050   0.69610   0.50640   0.01267  Uiso   1.00
H47    H     0.35660   0.79700   0.33850   0.01267  Uiso   1.00
H48    H     0.20140   0.72360   0.37130   0.01267  Uiso   1.00
C1     C     0.55522   0.75098   0.86670   0.01267  Uiso   1.00
C2     C     0.61887   0.69593   0.87470   0.01267  Uiso   1.00
C3     C     0.56604   0.58636   0.85480   0.01267  Uiso   1.00
C4     C     0.62300   0.53280   0.86100   0.01267  Uiso   1.00
C5     C     0.73337   0.58763   0.88740   0.01267  Uiso   1.00
C6     C     0.78705   0.69795   0.90750   0.01267  Uiso   1.00
C7     C     0.72910   0.75130   0.90020   0.01267  Uiso   1.00
C8     C     0.13038   0.61362   0.75690   0.01267  Uiso   1.00
C9     C     0.04427   0.59853   0.79570   0.01267  Uiso   1.00
C10    C     0.05871   0.59529   0.87860   0.01267  Uiso   1.00
C11    C     0.97632   0.57608   0.91250   0.01267  Uiso   1.00
C12    C     0.88004   0.55996   0.86310   0.01267  Uiso   1.00
C13    C     0.86616   0.56604   0.78140   0.01267  Uiso   1.00
C14    C     0.94810   0.58430   0.74770   0.01267  Uiso   1.00
C15    C     0.60134   0.14406   0.96600   0.01267  Uiso   1.00
C16    C     0.65798   0.24902   0.95220   0.01267  Uiso   1.00
C17    C     0.65088   0.33612   0.99240   0.01267  Uiso   1.00
C18    C     0.69886   0.43114   0.97670   0.01267  Uiso   1.00
C19    C     0.75142   0.43878   0.91660   0.01267  Uiso   1.00
C20    C     0.76050   0.35230   0.87760   0.01267  Uiso   1.00
C21    C     0.71520   0.25860   0.89660   0.01267  Uiso   1.00
C22    C     0.24902   0.44478   0.63330   0.01267  Uiso   1.00
C23    C     0.30407   0.38113   0.62530   0.01267  Uiso   1.00
C24    C     0.41364   0.43396   0.64520   0.01267  Uiso   1.00
C25    C     0.46720   0.37700   0.63900   0.01267  Uiso   1.00
C26    C     0.41237   0.26663   0.61260   0.01267  Uiso   1.00
C27    C     0.30205   0.21295   0.59250   0.01267  Uiso   1.00
C28    C     0.24870   0.27090   0.59980   0.01267  Uiso   1.00
C29    C     0.38638   0.86962   0.74310   0.01267  Uiso   1.00
C30    C     0.40147   0.95573   0.70430   0.01267  Uiso   1.00
C31    C     0.40471   0.94129   0.62140   0.01267  Uiso   1.00
C32    C     0.42392   0.02368   0.58750   0.01267  Uiso   1.00
C33    C     0.44004   0.11996   0.63690   0.01267  Uiso   1.00
C34    C     0.43396   0.13384   0.71860   0.01267  Uiso   1.00
C35    C     0.41570   0.05190   0.75230   0.01267  Uiso   1.00
C36    C     0.85594   0.39866   0.53400   0.01267  Uiso   1.00
C37    C     0.75098   0.34202   0.54780   0.01267  Uiso   1.00
C38    C     0.66388   0.34912   0.50760   0.01267  Uiso   1.00
C39    C     0.56886   0.30114   0.52330   0.01267  Uiso   1.00
C40    C     0.56122   0.24858   0.58340   0.01267  Uiso   1.00
C41    C     0.64770   0.23950   0.62240   0.01267  Uiso   1.00
C42    C     0.74140   0.28480   0.60340   0.01267  Uiso   1.00
C43    C     0.44478   0.24902   0.13330   0.01267  Uiso   1.00
C44    C     0.38113   0.30407   0.12530   0.01267  Uiso   1.00
C45    C     0.43396   0.41364   0.14520   0.01267  Uiso   1.00
C46    C     0.37700   0.46720   0.13900   0.01267  Uiso   1.00
C47    C     0.26663   0.41237   0.11260   0.01267  Uiso   1.00
C48    C     0.21295   0.30205   0.09250   0.01267  Uiso   1.00
C49    C     0.27090   0.24870   0.09980   0.01267  Uiso   1.00
C50    C     0.86962   0.38638   0.24310   0.01267  Uiso   1.00
C51    C     0.95573   0.40147   0.20430   0.01267  Uiso   1.00
C52    C     0.94129   0.40471   0.12140   0.01267  Uiso   1.00
C53    C     0.02368   0.42392   0.08750   0.01267  Uiso   1.00
C54    C     0.11996   0.44004   0.13690   0.01267  Uiso   1.00
C55    C     0.13384   0.43396   0.21860   0.01267  Uiso   1.00
C56    C     0.05190   0.41570   0.25230   0.01267  Uiso   1.00
C57    C     0.39866   0.85594   0.03400   0.01267  Uiso   1.00
C58    C     0.34202   0.75098   0.04780   0.01267  Uiso   1.00
C59    C     0.34912   0.66388   0.00760   0.01267  Uiso   1.00
C60    C     0.30114   0.56886   0.02330   0.01267  Uiso   1.00
C61    C     0.24858   0.56122   0.08340   0.01267  Uiso   1.00
C62    C     0.23950   0.64770   0.12240   0.01267  Uiso   1.00
C63    C     0.28480   0.74140   0.10340   0.01267  Uiso   1.00
C64    C     0.75098   0.55522   0.36670   0.01267  Uiso   1.00
C65    C     0.69593   0.61887   0.37470   0.01267  Uiso   1.00
C66    C     0.58636   0.56604   0.35480   0.01267  Uiso   1.00
C67    C     0.53280   0.62300   0.36100   0.01267  Uiso   1.00
C68    C     0.58763   0.73337   0.38740   0.01267  Uiso   1.00
C69    C     0.69795   0.78705   0.40750   0.01267  Uiso   1.00
C70    C     0.75130   0.72910   0.40020   0.01267  Uiso   1.00
C71    C     0.61362   0.13038   0.25690   0.01267  Uiso   1.00
C72    C     0.59853   0.04427   0.29570   0.01267  Uiso   1.00
C73    C     0.59529   0.05871   0.37860   0.01267  Uiso   1.00
C74    C     0.57608   0.97632   0.41250   0.01267  Uiso   1.00
C75    C     0.55996   0.88004   0.36310   0.01267  Uiso   1.00
C76    C     0.56604   0.86616   0.28140   0.01267  Uiso   1.00
C77    C     0.58430   0.94810   0.24770   0.01267  Uiso   1.00
C78    C     0.14406   0.60134   0.46600   0.01267  Uiso   1.00
C79    C     0.24902   0.65798   0.45220   0.01267  Uiso   1.00
C80    C     0.33612   0.65088   0.49240   0.01267  Uiso   1.00
C81    C     0.43114   0.69886   0.47670   0.01267  Uiso   1.00
C82    C     0.43878   0.75142   0.41660   0.01267  Uiso   1.00
C83    C     0.35230   0.76050   0.37760   0.01267  Uiso   1.00
C84    C     0.25860   0.71520   0.39660   0.01267  Uiso   1.00
N1     N     0.79327   0.53409   0.89606   0.01267  Uiso   1.00
N2     N     0.46591   0.20673   0.60394   0.01267  Uiso   1.00
N3     N     0.20673   0.46591   0.10394   0.01267  Uiso   1.00
N4     N     0.53409   0.79327   0.39606   0.01267  Uiso   1.00
O1     O     0.45388   0.69206   0.83670   0.01267  Uiso   1.00
O2     O     0.60475   0.85237   0.89133   0.01267  Uiso   1.00
O3     O     0.22193   0.64217   0.80795   0.01267  Uiso   1.00
O4     O     0.10885   0.59819   0.67743   0.01267  Uiso   1.00
O5     O     0.52857   0.13135   0.99811   0.01267  Uiso   1.00
O6     O     0.62577   0.07519   0.94278   0.01267  Uiso   1.00
O7     O     0.30794   0.54612   0.66330   0.01267  Uiso   1.00
O8     O     0.14763   0.39525   0.60867   0.01267  Uiso   1.00
O9     O     0.35783   0.77807   0.69205   0.01267  Uiso   1.00
O10    O     0.40181   0.89115   0.82257   0.01267  Uiso   1.00
O11    O     0.86865   0.47143   0.50189   0.01267  Uiso   1.00
O12    O     0.92481   0.37423   0.55722   0.01267  Uiso   1.00
O13    O     0.54612   0.30794   0.16330   0.01267  Uiso   1.00
O14    O     0.39525   0.14763   0.10867   0.01267  Uiso   1.00
O15    O     0.77807   0.35783   0.19205   0.01267  Uiso   1.00
O16    O     0.89115   0.40181   0.32257   0.01267  Uiso   1.00
O17    O     0.47143   0.86865   0.00189   0.01267  Uiso   1.00
O18    O     0.37423   0.92481   0.05722   0.01267  Uiso   1.00
O19    O     0.69206   0.45388   0.33670   0.01267  Uiso   1.00
O20    O     0.85237   0.60475   0.39133   0.01267  Uiso   1.00
O21    O     0.64217   0.22193   0.30795   0.01267  Uiso   1.00
O22    O     0.59819   0.10885   0.17743   0.01267  Uiso   1.00
O23    O     0.13135   0.52857   0.49811   0.01267  Uiso   1.00
O24    O     0.07519   0.62577   0.44278   0.01267  Uiso   1.00
