data_PIHJOH_clean
_audit_creation_date              2014-07-02
_audit_creation_method            'Materials Studio'
_symmetry_space_group_name_H-M    'P1'
_symmetry_Int_Tables_number       1
_symmetry_cell_setting            triclinic
loop_
_symmetry_equiv_pos_as_xyz
  x,y,z
_cell_length_a                    8.5810
_cell_length_b                    12.3468
_cell_length_c                    12.3468
_cell_angle_alpha                 105.2770
_cell_angle_beta                  105.4070
_cell_angle_gamma                 74.5932
loop_
_atom_site_label
_atom_site_type_symbol
_atom_site_fract_x
_atom_site_fract_y
_atom_site_fract_z
_atom_site_U_iso_or_equiv
_atom_site_adp_type
_atom_site_occupancy
Mn1    Mn    0.75000   0.92153   0.92153   0.01267  Uiso   1.00
Mn2    Mn    0.25000   0.07847   0.07847   0.01267  Uiso   1.00
H1     H     0.25520   0.36510   0.94610   0.01267  Uiso   1.00
H2     H     0.80690   0.64120   0.86860   0.01267  Uiso   1.00
H3     H     0.00810   0.47740   0.85640   0.01267  Uiso   1.00
H4     H     0.11750   0.82750   0.88710   0.01267  Uiso   1.00
H5     H     0.32590   0.66840   0.86900   0.01267  Uiso   1.00
H6     H     0.66490   0.18600   0.83440   0.01267  Uiso   1.00
H7     H     0.45390   0.49870   0.76530   0.01267  Uiso   1.00
H8     H     0.65900   0.33300   0.74500   0.01267  Uiso   1.00
H9     H     0.24480   0.94610   0.36510   0.01267  Uiso   1.00
H10    H     0.69310   0.86860   0.64120   0.01267  Uiso   1.00
H11    H     0.49190   0.85640   0.47740   0.01267  Uiso   1.00
H12    H     0.38250   0.88710   0.82750   0.01267  Uiso   1.00
H13    H     0.17410   0.86900   0.66840   0.01267  Uiso   1.00
H14    H     0.83510   0.83440   0.18600   0.01267  Uiso   1.00
H15    H     0.04610   0.76530   0.49870   0.01267  Uiso   1.00
H16    H     0.84100   0.74500   0.33300   0.01267  Uiso   1.00
H17    H     0.74480   0.63490   0.05390   0.01267  Uiso   1.00
H18    H     0.19310   0.35880   0.13140   0.01267  Uiso   1.00
H19    H     0.99190   0.52260   0.14360   0.01267  Uiso   1.00
H20    H     0.88250   0.17250   0.11290   0.01267  Uiso   1.00
H21    H     0.67410   0.33160   0.13100   0.01267  Uiso   1.00
H22    H     0.33510   0.81400   0.16560   0.01267  Uiso   1.00
H23    H     0.54610   0.50130   0.23470   0.01267  Uiso   1.00
H24    H     0.34100   0.66700   0.25500   0.01267  Uiso   1.00
H25    H     0.75520   0.05390   0.63490   0.01267  Uiso   1.00
H26    H     0.30690   0.13140   0.35880   0.01267  Uiso   1.00
H27    H     0.50810   0.14360   0.52260   0.01267  Uiso   1.00
H28    H     0.61750   0.11290   0.17250   0.01267  Uiso   1.00
H29    H     0.82590   0.13100   0.33160   0.01267  Uiso   1.00
H30    H     0.16490   0.16560   0.81400   0.01267  Uiso   1.00
H31    H     0.95390   0.23470   0.50130   0.01267  Uiso   1.00
H32    H     0.15900   0.25500   0.66700   0.01267  Uiso   1.00
C1     C     0.46230   0.26197   0.90077   0.01267  Uiso   1.00
C2     C     0.47130   0.16802   0.96106   0.01267  Uiso   1.00
C3     C     0.33660   0.35951   0.90685   0.01267  Uiso   1.00
C4     C     0.32920   0.44954   0.85552   0.01267  Uiso   1.00
C5     C     0.19550   0.55274   0.86334   0.01267  Uiso   1.00
C6     C     0.91360   0.64711   0.87089   0.01267  Uiso   1.00
C7     C     0.03400   0.54763   0.86257   0.01267  Uiso   1.00
C8     C     0.09490   0.75621   0.88085   0.01267  Uiso   1.00
C9     C     0.22190   0.66037   0.87083   0.01267  Uiso   1.00
C10    C     0.58150   0.25178   0.84042   0.01267  Uiso   1.00
C11    C     0.57660   0.34000   0.78860   0.01267  Uiso   1.00
C12    C     0.45350   0.43893   0.79787   0.01267  Uiso   1.00
C13    C     0.03770   0.90077   0.26197   0.01267  Uiso   1.00
C14    C     0.02870   0.96106   0.16802   0.01267  Uiso   1.00
C15    C     0.16340   0.90685   0.35951   0.01267  Uiso   1.00
C16    C     0.17080   0.85552   0.44954   0.01267  Uiso   1.00
C17    C     0.30450   0.86334   0.55274   0.01267  Uiso   1.00
C18    C     0.58640   0.87089   0.64711   0.01267  Uiso   1.00
C19    C     0.46600   0.86257   0.54763   0.01267  Uiso   1.00
C20    C     0.40510   0.88085   0.75621   0.01267  Uiso   1.00
C21    C     0.27810   0.87083   0.66037   0.01267  Uiso   1.00
C22    C     0.91850   0.84042   0.25178   0.01267  Uiso   1.00
C23    C     0.92340   0.78860   0.34000   0.01267  Uiso   1.00
C24    C     0.04650   0.79787   0.43893   0.01267  Uiso   1.00
C25    C     0.53770   0.73803   0.09923   0.01267  Uiso   1.00
C26    C     0.52870   0.83198   0.03894   0.01267  Uiso   1.00
C27    C     0.66340   0.64049   0.09315   0.01267  Uiso   1.00
C28    C     0.67080   0.55046   0.14448   0.01267  Uiso   1.00
C29    C     0.80450   0.44726   0.13666   0.01267  Uiso   1.00
C30    C     0.08640   0.35289   0.12911   0.01267  Uiso   1.00
C31    C     0.96600   0.45237   0.13743   0.01267  Uiso   1.00
C32    C     0.90510   0.24379   0.11915   0.01267  Uiso   1.00
C33    C     0.77810   0.33963   0.12917   0.01267  Uiso   1.00
C34    C     0.41850   0.74822   0.15958   0.01267  Uiso   1.00
C35    C     0.42340   0.66000   0.21140   0.01267  Uiso   1.00
C36    C     0.54650   0.56107   0.20213   0.01267  Uiso   1.00
C37    C     0.96230   0.09923   0.73803   0.01267  Uiso   1.00
C38    C     0.97130   0.03894   0.83198   0.01267  Uiso   1.00
C39    C     0.83660   0.09315   0.64049   0.01267  Uiso   1.00
C40    C     0.82920   0.14448   0.55046   0.01267  Uiso   1.00
C41    C     0.69550   0.13666   0.44726   0.01267  Uiso   1.00
C42    C     0.41360   0.12911   0.35289   0.01267  Uiso   1.00
C43    C     0.53400   0.13743   0.45237   0.01267  Uiso   1.00
C44    C     0.59490   0.11915   0.24379   0.01267  Uiso   1.00
C45    C     0.72190   0.12917   0.33963   0.01267  Uiso   1.00
C46    C     0.08150   0.15958   0.74822   0.01267  Uiso   1.00
C47    C     0.07660   0.21140   0.66000   0.01267  Uiso   1.00
C48    C     0.95350   0.20213   0.56107   0.01267  Uiso   1.00
N1     N     0.94150   0.75178   0.88200   0.01267  Uiso   1.00
N2     N     0.55850   0.88200   0.75178   0.01267  Uiso   1.00
N3     N     0.05850   0.24822   0.11800   0.01267  Uiso   1.00
N4     N     0.44150   0.11800   0.24822   0.01267  Uiso   1.00
O1     O     0.35650   0.18158   0.01208   0.01267  Uiso   1.00
O2     O     0.59280   0.08650   0.96004   0.01267  Uiso   1.00
O3     O     0.14350   0.01208   0.18158   0.01267  Uiso   1.00
O4     O     0.90720   0.96004   0.08650   0.01267  Uiso   1.00
O5     O     0.64350   0.81842   0.98792   0.01267  Uiso   1.00
O6     O     0.40720   0.91350   0.03996   0.01267  Uiso   1.00
O7     O     0.85650   0.98792   0.81842   0.01267  Uiso   1.00
O8     O     0.09280   0.03996   0.91350   0.01267  Uiso   1.00
