data_PILWIS_clean
_audit_creation_date              2014-07-02
_audit_creation_method            'Materials Studio'
_symmetry_space_group_name_H-M    'P1'
_symmetry_Int_Tables_number       1
_symmetry_cell_setting            triclinic
loop_
_symmetry_equiv_pos_as_xyz
  x,y,z
_cell_length_a                    11.2535
_cell_length_b                    11.2535
_cell_length_c                    20.5570
_cell_angle_alpha                 74.4633
_cell_angle_beta                  74.4633
_cell_angle_gamma                 79.5270
loop_
_atom_site_label
_atom_site_type_symbol
_atom_site_fract_x
_atom_site_fract_y
_atom_site_fract_z
_atom_site_U_iso_or_equiv
_atom_site_adp_type
_atom_site_occupancy
Cd1    Cd    0.25745   0.80936   0.66767   0.01267  Uiso   1.00
Cd2    Cd    0.19064   0.74255   0.83233   0.01267  Uiso   1.00
H1     H     0.39900   0.06740   0.41600   0.01267  Uiso   1.00
H2     H     0.36620   0.94060   0.31580   0.01267  Uiso   1.00
H3     H     0.67420   0.72280   0.66460   0.01267  Uiso   1.00
H4     H     0.87960   0.73640   0.66060   0.01267  Uiso   1.00
H5     H     0.60020   0.78600   0.40520   0.01267  Uiso   1.00
H6     H     0.57090   0.91850   0.35920   0.01267  Uiso   1.00
H7     H     0.26830   0.06110   0.53270   0.01267  Uiso   1.00
H8     H     0.42450   0.64470   0.58170   0.01267  Uiso   1.00
H9     H     0.54230   0.66350   0.52020   0.01267  Uiso   1.00
H10    H     0.42120   0.63100   0.50830   0.01267  Uiso   1.00
H11    H     0.55880   0.61660   0.37250   0.01267  Uiso   1.00
H12    H     0.85550   0.91250   0.84540   0.01267  Uiso   1.00
H13    H     0.47340   0.53200   0.30630   0.01267  Uiso   1.00
H14    H     0.44670   0.88450   0.85250   0.01267  Uiso   1.00
H15    H     0.70180   0.97360   0.92880   0.01267  Uiso   1.00
H16    H     0.27450   0.85710   0.25360   0.01267  Uiso   1.00
H17    H     0.49400   0.96440   0.93260   0.01267  Uiso   1.00
H18    H     0.93260   0.60100   0.08400   0.01267  Uiso   1.00
H19    H     0.05940   0.63380   0.18420   0.01267  Uiso   1.00
H20    H     0.27720   0.32580   0.83540   0.01267  Uiso   1.00
H21    H     0.26360   0.12040   0.83940   0.01267  Uiso   1.00
H22    H     0.21400   0.39980   0.09480   0.01267  Uiso   1.00
H23    H     0.08150   0.42910   0.14080   0.01267  Uiso   1.00
H24    H     0.93890   0.73170   0.96730   0.01267  Uiso   1.00
H25    H     0.35530   0.57550   0.91830   0.01267  Uiso   1.00
H26    H     0.33650   0.45770   0.97980   0.01267  Uiso   1.00
H27    H     0.36900   0.57880   0.99170   0.01267  Uiso   1.00
H28    H     0.38340   0.44120   0.12750   0.01267  Uiso   1.00
H29    H     0.08750   0.14450   0.65460   0.01267  Uiso   1.00
H30    H     0.46800   0.52660   0.19370   0.01267  Uiso   1.00
H31    H     0.11550   0.55330   0.64750   0.01267  Uiso   1.00
H32    H     0.02640   0.29820   0.57120   0.01267  Uiso   1.00
H33    H     0.14290   0.72550   0.24640   0.01267  Uiso   1.00
H34    H     0.03560   0.50600   0.56740   0.01267  Uiso   1.00
C1     C     0.59790   0.78810   0.74950   0.01267  Uiso   1.00
C2     C     0.84580   0.80520   0.74470   0.01267  Uiso   1.00
C3     C     0.38990   0.99750   0.45250   0.01267  Uiso   1.00
C4     C     0.75100   0.84700   0.79750   0.01267  Uiso   1.00
C5     C     0.46810   0.77150   0.74990   0.01267  Uiso   1.00
C6     C     0.98240   0.80220   0.74170   0.01267  Uiso   1.00
C7     C     0.38860   0.85720   0.31470   0.01267  Uiso   1.00
C8     C     0.69240   0.75280   0.69840   0.01267  Uiso   1.00
C9     C     0.62440   0.83860   0.80000   0.01267  Uiso   1.00
C10    C     0.40880   0.81000   0.51320   0.01267  Uiso   1.00
C11    C     0.81670   0.76110   0.69580   0.01267  Uiso   1.00
C12    C     0.47210   0.79070   0.35010   0.01267  Uiso   1.00
C13    C     0.36630   0.68630   0.27170   0.01267  Uiso   1.00
C14    C     0.53400   0.84620   0.38980   0.01267  Uiso   1.00
C15    C     0.31720   0.99380   0.51700   0.01267  Uiso   1.00
C16    C     0.45310   0.67530   0.53260   0.01267  Uiso   1.00
C17    C     0.50290   0.66650   0.34760   0.01267  Uiso   1.00
C18    C     0.77420   0.90300   0.84720   0.01267  Uiso   1.00
C19    C     0.45060   0.61500   0.30790   0.01267  Uiso   1.00
C20    C     0.52950   0.88670   0.85130   0.01267  Uiso   1.00
C21    C     0.68270   0.94190   0.89600   0.01267  Uiso   1.00
C22    C     0.33370   0.80750   0.27630   0.01267  Uiso   1.00
C23    C     0.55720   0.93560   0.89880   0.01267  Uiso   1.00
C24    C     0.21190   0.40210   0.75050   0.01267  Uiso   1.00
C25    C     0.19480   0.15420   0.75530   0.01267  Uiso   1.00
C26    C     0.00250   0.61010   0.04750   0.01267  Uiso   1.00
C27    C     0.15300   0.24900   0.70250   0.01267  Uiso   1.00
C28    C     0.22850   0.53190   0.75010   0.01267  Uiso   1.00
C29    C     0.19780   0.01760   0.75830   0.01267  Uiso   1.00
C30    C     0.14280   0.61140   0.18530   0.01267  Uiso   1.00
C31    C     0.24720   0.30760   0.80160   0.01267  Uiso   1.00
C32    C     0.16140   0.37560   0.70000   0.01267  Uiso   1.00
C33    C     0.19000   0.59120   0.98680   0.01267  Uiso   1.00
C34    C     0.23890   0.18330   0.80420   0.01267  Uiso   1.00
C35    C     0.20930   0.52790   0.14990   0.01267  Uiso   1.00
C36    C     0.31370   0.63370   0.22830   0.01267  Uiso   1.00
C37    C     0.15380   0.46600   0.11020   0.01267  Uiso   1.00
C38    C     0.00620   0.68280   0.98300   0.01267  Uiso   1.00
C39    C     0.32470   0.54690   0.96740   0.01267  Uiso   1.00
C40    C     0.33350   0.49710   0.15240   0.01267  Uiso   1.00
C41    C     0.09700   0.22580   0.65280   0.01267  Uiso   1.00
C42    C     0.38500   0.54940   0.19210   0.01267  Uiso   1.00
C43    C     0.11330   0.47050   0.64870   0.01267  Uiso   1.00
C44    C     0.05810   0.31730   0.60400   0.01267  Uiso   1.00
C45    C     0.19250   0.66630   0.22370   0.01267  Uiso   1.00
C46    C     0.06440   0.44280   0.60120   0.01267  Uiso   1.00
N1     N     0.32850   0.87310   0.55512   0.01267  Uiso   1.00
N2     N     0.44660   0.88260   0.45040   0.01267  Uiso   1.00
N3     N     0.12690   0.67150   0.94488   0.01267  Uiso   1.00
N4     N     0.11740   0.55340   0.04960   0.01267  Uiso   1.00
O1     O     0.39541   0.73801   0.80730   0.01267  Uiso   1.00
O2     O     0.44363   0.79123   0.69152   0.01267  Uiso   1.00
O3     O     0.01340   0.77300   0.79840   0.01267  Uiso   1.00
O4     O     0.05340   0.82480   0.68290   0.01267  Uiso   1.00
O5     O     0.26199   0.60459   0.69270   0.01267  Uiso   1.00
O6     O     0.20877   0.55637   0.80848   0.01267  Uiso   1.00
O7     O     0.22700   0.98660   0.70160   0.01267  Uiso   1.00
O8     O     0.17520   0.94660   0.81710   0.01267  Uiso   1.00
Cd3    Cd    0.74255   0.19064   0.33233   0.01267  Uiso   1.00
Cd4    Cd    0.80936   0.25745   0.16767   0.01267  Uiso   1.00
H35    H     0.60100   0.93260   0.58400   0.01267  Uiso   1.00
H36    H     0.63380   0.05940   0.68420   0.01267  Uiso   1.00
H37    H     0.32580   0.27720   0.33540   0.01267  Uiso   1.00
H38    H     0.12040   0.26360   0.33940   0.01267  Uiso   1.00
H39    H     0.39980   0.21400   0.59480   0.01267  Uiso   1.00
H40    H     0.42910   0.08150   0.64080   0.01267  Uiso   1.00
H41    H     0.73170   0.93890   0.46730   0.01267  Uiso   1.00
H42    H     0.57550   0.35530   0.41830   0.01267  Uiso   1.00
H43    H     0.45770   0.33650   0.47980   0.01267  Uiso   1.00
H44    H     0.57880   0.36900   0.49170   0.01267  Uiso   1.00
H45    H     0.44120   0.38340   0.62750   0.01267  Uiso   1.00
H46    H     0.14450   0.08750   0.15460   0.01267  Uiso   1.00
H47    H     0.52660   0.46800   0.69370   0.01267  Uiso   1.00
H48    H     0.55330   0.11550   0.14750   0.01267  Uiso   1.00
H49    H     0.29820   0.02640   0.07120   0.01267  Uiso   1.00
H50    H     0.72550   0.14290   0.74640   0.01267  Uiso   1.00
H51    H     0.50600   0.03560   0.06740   0.01267  Uiso   1.00
H52    H     0.06740   0.39900   0.91600   0.01267  Uiso   1.00
H53    H     0.94060   0.36620   0.81580   0.01267  Uiso   1.00
H54    H     0.72280   0.67420   0.16460   0.01267  Uiso   1.00
H55    H     0.73640   0.87960   0.16060   0.01267  Uiso   1.00
H56    H     0.78600   0.60020   0.90520   0.01267  Uiso   1.00
H57    H     0.91850   0.57090   0.85920   0.01267  Uiso   1.00
H58    H     0.06110   0.26830   0.03270   0.01267  Uiso   1.00
H59    H     0.64470   0.42450   0.08170   0.01267  Uiso   1.00
H60    H     0.66350   0.54230   0.02020   0.01267  Uiso   1.00
H61    H     0.63100   0.42120   0.00830   0.01267  Uiso   1.00
H62    H     0.61660   0.55880   0.87250   0.01267  Uiso   1.00
H63    H     0.91250   0.85550   0.34540   0.01267  Uiso   1.00
H64    H     0.53200   0.47340   0.80630   0.01267  Uiso   1.00
H65    H     0.88450   0.44670   0.35250   0.01267  Uiso   1.00
H66    H     0.97360   0.70180   0.42880   0.01267  Uiso   1.00
H67    H     0.85710   0.27450   0.75360   0.01267  Uiso   1.00
H68    H     0.96440   0.49400   0.43260   0.01267  Uiso   1.00
C47    C     0.40210   0.21190   0.25050   0.01267  Uiso   1.00
C48    C     0.15420   0.19480   0.25530   0.01267  Uiso   1.00
C49    C     0.61010   0.00250   0.54750   0.01267  Uiso   1.00
C50    C     0.24900   0.15300   0.20250   0.01267  Uiso   1.00
C51    C     0.53190   0.22850   0.25010   0.01267  Uiso   1.00
C52    C     0.01760   0.19780   0.25830   0.01267  Uiso   1.00
C53    C     0.61140   0.14280   0.68530   0.01267  Uiso   1.00
C54    C     0.30760   0.24720   0.30160   0.01267  Uiso   1.00
C55    C     0.37560   0.16140   0.20000   0.01267  Uiso   1.00
C56    C     0.59120   0.19000   0.48680   0.01267  Uiso   1.00
C57    C     0.18330   0.23890   0.30420   0.01267  Uiso   1.00
C58    C     0.52790   0.20930   0.64990   0.01267  Uiso   1.00
C59    C     0.63370   0.31370   0.72830   0.01267  Uiso   1.00
C60    C     0.46600   0.15380   0.61020   0.01267  Uiso   1.00
C61    C     0.68280   0.00620   0.48300   0.01267  Uiso   1.00
C62    C     0.54690   0.32470   0.46740   0.01267  Uiso   1.00
C63    C     0.49710   0.33350   0.65240   0.01267  Uiso   1.00
C64    C     0.22580   0.09700   0.15280   0.01267  Uiso   1.00
C65    C     0.54940   0.38500   0.69210   0.01267  Uiso   1.00
C66    C     0.47050   0.11330   0.14870   0.01267  Uiso   1.00
C67    C     0.31730   0.05810   0.10400   0.01267  Uiso   1.00
C68    C     0.66630   0.19250   0.72370   0.01267  Uiso   1.00
C69    C     0.44280   0.06440   0.10120   0.01267  Uiso   1.00
C70    C     0.78810   0.59790   0.24950   0.01267  Uiso   1.00
C71    C     0.80520   0.84580   0.24470   0.01267  Uiso   1.00
C72    C     0.99750   0.38990   0.95250   0.01267  Uiso   1.00
C73    C     0.84700   0.75100   0.29750   0.01267  Uiso   1.00
C74    C     0.77150   0.46810   0.24990   0.01267  Uiso   1.00
C75    C     0.80220   0.98240   0.24170   0.01267  Uiso   1.00
C76    C     0.85720   0.38860   0.81470   0.01267  Uiso   1.00
C77    C     0.75280   0.69240   0.19840   0.01267  Uiso   1.00
C78    C     0.83860   0.62440   0.30000   0.01267  Uiso   1.00
C79    C     0.81000   0.40880   0.01320   0.01267  Uiso   1.00
C80    C     0.76110   0.81670   0.19580   0.01267  Uiso   1.00
C81    C     0.79070   0.47210   0.85010   0.01267  Uiso   1.00
C82    C     0.68630   0.36630   0.77170   0.01267  Uiso   1.00
C83    C     0.84620   0.53400   0.88980   0.01267  Uiso   1.00
C84    C     0.99380   0.31720   0.01700   0.01267  Uiso   1.00
C85    C     0.67530   0.45310   0.03260   0.01267  Uiso   1.00
C86    C     0.66650   0.50290   0.84760   0.01267  Uiso   1.00
C87    C     0.90300   0.77420   0.34720   0.01267  Uiso   1.00
C88    C     0.61500   0.45060   0.80790   0.01267  Uiso   1.00
C89    C     0.88670   0.52950   0.35130   0.01267  Uiso   1.00
C90    C     0.94190   0.68270   0.39600   0.01267  Uiso   1.00
C91    C     0.80750   0.33370   0.77630   0.01267  Uiso   1.00
C92    C     0.93560   0.55720   0.39880   0.01267  Uiso   1.00
N5     N     0.67150   0.12690   0.44488   0.01267  Uiso   1.00
N6     N     0.55340   0.11740   0.54960   0.01267  Uiso   1.00
N7     N     0.87310   0.32850   0.05512   0.01267  Uiso   1.00
N8     N     0.88260   0.44660   0.95040   0.01267  Uiso   1.00
O9     O     0.60459   0.26199   0.19270   0.01267  Uiso   1.00
O10    O     0.55637   0.20877   0.30848   0.01267  Uiso   1.00
O11    O     0.98660   0.22700   0.20160   0.01267  Uiso   1.00
O12    O     0.94660   0.17520   0.31710   0.01267  Uiso   1.00
O13    O     0.73801   0.39541   0.30730   0.01267  Uiso   1.00
O14    O     0.79123   0.44363   0.19152   0.01267  Uiso   1.00
O15    O     0.77300   0.01340   0.29840   0.01267  Uiso   1.00
O16    O     0.82480   0.05340   0.18290   0.01267  Uiso   1.00
