data_PIXHOV_clean
_audit_creation_date              2014-07-02
_audit_creation_method            'Materials Studio'
_symmetry_space_group_name_H-M    'P1'
_symmetry_Int_Tables_number       1
_symmetry_cell_setting            triclinic
loop_
_symmetry_equiv_pos_as_xyz
  x,y,z
_cell_length_a                    7.6513
_cell_length_b                    13.9519
_cell_length_c                    14.2991
_cell_angle_alpha                 99.3590
_cell_angle_beta                  90.0000
_cell_angle_gamma                 90.0000
loop_
_atom_site_label
_atom_site_type_symbol
_atom_site_fract_x
_atom_site_fract_y
_atom_site_fract_z
_atom_site_U_iso_or_equiv
_atom_site_adp_type
_atom_site_occupancy
Zn1    Zn    0.40056   0.25000   0.25000   0.01267  Uiso   1.00
Zn2    Zn    0.59944   0.75000   0.75000   0.01267  Uiso   1.00
H1     H     0.52560   0.24920   0.45380   0.01267  Uiso   1.00
H2     H     0.77120   0.20590   0.52690   0.01267  Uiso   1.00
H3     H     0.94520   0.06940   0.27630   0.01267  Uiso   1.00
H4     H     0.69150   0.11280   0.21090   0.01267  Uiso   1.00
H5     H     0.05680   0.12770   0.52230   0.01267  Uiso   1.00
H6     H     0.18240   0.04700   0.34980   0.01267  Uiso   1.00
H7     H     0.29970   0.09270   0.59690   0.01267  Uiso   1.00
H8     H     0.45240   0.96160   0.34010   0.01267  Uiso   1.00
H9     H     0.27090   0.93180   0.00020   0.01267  Uiso   1.00
H10    H     0.94860   0.14740   0.09410   0.01267  Uiso   1.00
H11    H     0.52560   0.25080   0.04620   0.01267  Uiso   1.00
H12    H     0.77120   0.29410   0.97310   0.01267  Uiso   1.00
H13    H     0.94520   0.43060   0.22370   0.01267  Uiso   1.00
H14    H     0.69150   0.38720   0.28910   0.01267  Uiso   1.00
H15    H     0.05680   0.37230   0.97770   0.01267  Uiso   1.00
H16    H     0.18240   0.45300   0.15020   0.01267  Uiso   1.00
H17    H     0.29970   0.40730   0.90310   0.01267  Uiso   1.00
H18    H     0.45240   0.53840   0.15990   0.01267  Uiso   1.00
H19    H     0.27090   0.56820   0.49980   0.01267  Uiso   1.00
H20    H     0.94860   0.35260   0.40590   0.01267  Uiso   1.00
H21    H     0.47440   0.75080   0.54620   0.01267  Uiso   1.00
H22    H     0.22880   0.79410   0.47310   0.01267  Uiso   1.00
H23    H     0.05480   0.93060   0.72370   0.01267  Uiso   1.00
H24    H     0.30850   0.88720   0.78910   0.01267  Uiso   1.00
H25    H     0.94320   0.87230   0.47770   0.01267  Uiso   1.00
H26    H     0.81760   0.95300   0.65020   0.01267  Uiso   1.00
H27    H     0.70030   0.90730   0.40310   0.01267  Uiso   1.00
H28    H     0.54760   0.03840   0.65990   0.01267  Uiso   1.00
H29    H     0.72910   0.06820   0.99980   0.01267  Uiso   1.00
H30    H     0.05140   0.85260   0.90590   0.01267  Uiso   1.00
H31    H     0.47440   0.74920   0.95380   0.01267  Uiso   1.00
H32    H     0.22880   0.70590   0.02690   0.01267  Uiso   1.00
H33    H     0.05480   0.56940   0.77630   0.01267  Uiso   1.00
H34    H     0.30850   0.61280   0.71090   0.01267  Uiso   1.00
H35    H     0.94320   0.62770   0.02230   0.01267  Uiso   1.00
H36    H     0.81760   0.54700   0.84980   0.01267  Uiso   1.00
H37    H     0.70030   0.59270   0.09690   0.01267  Uiso   1.00
H38    H     0.54760   0.46160   0.84010   0.01267  Uiso   1.00
H39    H     0.72910   0.43180   0.50020   0.01267  Uiso   1.00
H40    H     0.05140   0.64740   0.59410   0.01267  Uiso   1.00
C1     C     0.61050   0.21260   0.41760   0.01267  Uiso   1.00
C2     C     0.75890   0.18720   0.46180   0.01267  Uiso   1.00
C3     C     0.89120   0.13370   0.41050   0.01267  Uiso   1.00
C4     C     0.86230   0.10590   0.31410   0.01267  Uiso   1.00
C5     C     0.70910   0.13300   0.27540   0.01267  Uiso   1.00
C6     C     0.05070   0.10880   0.45690   0.01267  Uiso   1.00
C7     C     0.18730   0.06220   0.41560   0.01267  Uiso   1.00
C8     C     0.34670   0.03100   0.46030   0.01267  Uiso   1.00
C9     C     0.37940   0.05510   0.55770   0.01267  Uiso   1.00
C10    C     0.47110   0.97690   0.40510   0.01267  Uiso   1.00
C11    C     0.27040   0.09630   0.12210   0.01267  Uiso   1.00
C12    C     0.13120   0.04590   0.05850   0.01267  Uiso   1.00
C13    C     0.16060   0.95990   0.00110   0.01267  Uiso   1.00
C14    C     0.97080   0.08750   0.05680   0.01267  Uiso   1.00
C15    C     0.61050   0.28740   0.08240   0.01267  Uiso   1.00
C16    C     0.75890   0.31280   0.03820   0.01267  Uiso   1.00
C17    C     0.89120   0.36630   0.08950   0.01267  Uiso   1.00
C18    C     0.86230   0.39410   0.18590   0.01267  Uiso   1.00
C19    C     0.70910   0.36700   0.22460   0.01267  Uiso   1.00
C20    C     0.05070   0.39120   0.04310   0.01267  Uiso   1.00
C21    C     0.18730   0.43780   0.08440   0.01267  Uiso   1.00
C22    C     0.34670   0.46900   0.03970   0.01267  Uiso   1.00
C23    C     0.37940   0.44490   0.94230   0.01267  Uiso   1.00
C24    C     0.47110   0.52310   0.09490   0.01267  Uiso   1.00
C25    C     0.27040   0.40370   0.37790   0.01267  Uiso   1.00
C26    C     0.13120   0.45410   0.44150   0.01267  Uiso   1.00
C27    C     0.16060   0.54010   0.49890   0.01267  Uiso   1.00
C28    C     0.97080   0.41250   0.44320   0.01267  Uiso   1.00
C29    C     0.38950   0.78740   0.58240   0.01267  Uiso   1.00
C30    C     0.24110   0.81280   0.53820   0.01267  Uiso   1.00
C31    C     0.10880   0.86630   0.58950   0.01267  Uiso   1.00
C32    C     0.13770   0.89410   0.68590   0.01267  Uiso   1.00
C33    C     0.29090   0.86700   0.72460   0.01267  Uiso   1.00
C34    C     0.94930   0.89120   0.54310   0.01267  Uiso   1.00
C35    C     0.81270   0.93780   0.58440   0.01267  Uiso   1.00
C36    C     0.65330   0.96900   0.53970   0.01267  Uiso   1.00
C37    C     0.62060   0.94490   0.44230   0.01267  Uiso   1.00
C38    C     0.52890   0.02310   0.59490   0.01267  Uiso   1.00
C39    C     0.72960   0.90370   0.87790   0.01267  Uiso   1.00
C40    C     0.86880   0.95410   0.94150   0.01267  Uiso   1.00
C41    C     0.83940   0.04010   0.99890   0.01267  Uiso   1.00
C42    C     0.02920   0.91250   0.94320   0.01267  Uiso   1.00
C43    C     0.38950   0.71260   0.91760   0.01267  Uiso   1.00
C44    C     0.24110   0.68720   0.96180   0.01267  Uiso   1.00
C45    C     0.10880   0.63370   0.91050   0.01267  Uiso   1.00
C46    C     0.13770   0.60590   0.81410   0.01267  Uiso   1.00
C47    C     0.29090   0.63300   0.77540   0.01267  Uiso   1.00
C48    C     0.94930   0.60880   0.95690   0.01267  Uiso   1.00
C49    C     0.81270   0.56220   0.91560   0.01267  Uiso   1.00
C50    C     0.65330   0.53100   0.96030   0.01267  Uiso   1.00
C51    C     0.62060   0.55510   0.05770   0.01267  Uiso   1.00
C52    C     0.52890   0.47690   0.90510   0.01267  Uiso   1.00
C53    C     0.72960   0.59630   0.62210   0.01267  Uiso   1.00
C54    C     0.86880   0.54590   0.55850   0.01267  Uiso   1.00
C55    C     0.83940   0.45990   0.50110   0.01267  Uiso   1.00
C56    C     0.02920   0.58750   0.55680   0.01267  Uiso   1.00
N1     N     0.58370   0.18640   0.32400   0.01267  Uiso   1.00
N2     N     0.58370   0.31360   0.17600   0.01267  Uiso   1.00
N3     N     0.41630   0.81360   0.67600   0.01267  Uiso   1.00
N4     N     0.41630   0.68640   0.82400   0.01267  Uiso   1.00
O1     O     0.23790   0.17670   0.16460   0.01267  Uiso   1.00
O2     O     0.41060   0.06000   0.12560   0.01267  Uiso   1.00
O3     O     0.23790   0.32330   0.33540   0.01267  Uiso   1.00
O4     O     0.41060   0.44000   0.37440   0.01267  Uiso   1.00
O5     O     0.76210   0.82330   0.83540   0.01267  Uiso   1.00
O6     O     0.58940   0.94000   0.87440   0.01267  Uiso   1.00
O7     O     0.76210   0.67670   0.66460   0.01267  Uiso   1.00
O8     O     0.58940   0.56000   0.62560   0.01267  Uiso   1.00
