data_PIXPET_clean
_audit_creation_date              2014-07-02
_audit_creation_method            'Materials Studio'
_symmetry_space_group_name_H-M    'P1'
_symmetry_Int_Tables_number       1
_symmetry_cell_setting            triclinic
loop_
_symmetry_equiv_pos_as_xyz
  x,y,z
_cell_length_a                    7.6229
_cell_length_b                    13.9159
_cell_length_c                    14.2827
_cell_angle_alpha                 99.2710
_cell_angle_beta                  90.0000
_cell_angle_gamma                 90.0000
loop_
_atom_site_label
_atom_site_type_symbol
_atom_site_fract_x
_atom_site_fract_y
_atom_site_fract_z
_atom_site_U_iso_or_equiv
_atom_site_adp_type
_atom_site_occupancy
Zn1    Zn    0.40020   0.25000   0.25000   0.01267  Uiso   1.00
Zn2    Zn    0.59980   0.75000   0.75000   0.01267  Uiso   1.00
H1     H     0.52320   0.25030   0.45520   0.01267  Uiso   1.00
H2     H     0.77040   0.20800   0.52910   0.01267  Uiso   1.00
H3     H     0.94650   0.06970   0.27650   0.01267  Uiso   1.00
H4     H     0.69130   0.11120   0.20940   0.01267  Uiso   1.00
H5     H     0.05830   0.12900   0.52360   0.01267  Uiso   1.00
H6     H     0.18140   0.04380   0.34810   0.01267  Uiso   1.00
H7     H     0.29760   0.09170   0.59820   0.01267  Uiso   1.00
H8     H     0.44840   0.95800   0.33880   0.01267  Uiso   1.00
H9     H     0.27540   0.93000   0.99850   0.01267  Uiso   1.00
H10    H     0.94660   0.14870   0.09470   0.01267  Uiso   1.00
H11    H     0.52320   0.24970   0.04480   0.01267  Uiso   1.00
H12    H     0.77040   0.29200   0.97090   0.01267  Uiso   1.00
H13    H     0.94650   0.43030   0.22350   0.01267  Uiso   1.00
H14    H     0.69130   0.38880   0.29060   0.01267  Uiso   1.00
H15    H     0.05830   0.37100   0.97640   0.01267  Uiso   1.00
H16    H     0.18140   0.45620   0.15190   0.01267  Uiso   1.00
H17    H     0.29760   0.40830   0.90180   0.01267  Uiso   1.00
H18    H     0.44840   0.54200   0.16120   0.01267  Uiso   1.00
H19    H     0.27540   0.57000   0.50150   0.01267  Uiso   1.00
H20    H     0.94660   0.35130   0.40530   0.01267  Uiso   1.00
H21    H     0.47680   0.74970   0.54480   0.01267  Uiso   1.00
H22    H     0.22960   0.79200   0.47090   0.01267  Uiso   1.00
H23    H     0.05350   0.93030   0.72350   0.01267  Uiso   1.00
H24    H     0.30870   0.88880   0.79060   0.01267  Uiso   1.00
H25    H     0.94170   0.87100   0.47640   0.01267  Uiso   1.00
H26    H     0.81860   0.95620   0.65190   0.01267  Uiso   1.00
H27    H     0.70240   0.90830   0.40180   0.01267  Uiso   1.00
H28    H     0.55160   0.04200   0.66120   0.01267  Uiso   1.00
H29    H     0.72460   0.07000   0.00150   0.01267  Uiso   1.00
H30    H     0.05340   0.85130   0.90530   0.01267  Uiso   1.00
H31    H     0.47680   0.75030   0.95520   0.01267  Uiso   1.00
H32    H     0.22960   0.70800   0.02910   0.01267  Uiso   1.00
H33    H     0.05350   0.56970   0.77650   0.01267  Uiso   1.00
H34    H     0.30870   0.61120   0.70940   0.01267  Uiso   1.00
H35    H     0.94170   0.62900   0.02360   0.01267  Uiso   1.00
H36    H     0.81860   0.54380   0.84810   0.01267  Uiso   1.00
H37    H     0.70240   0.59170   0.09820   0.01267  Uiso   1.00
H38    H     0.55160   0.45800   0.83880   0.01267  Uiso   1.00
H39    H     0.72460   0.43000   0.49850   0.01267  Uiso   1.00
H40    H     0.05340   0.64870   0.59470   0.01267  Uiso   1.00
C1     C     0.61080   0.21290   0.41850   0.01267  Uiso   1.00
C2     C     0.75770   0.18810   0.46260   0.01267  Uiso   1.00
C3     C     0.89090   0.13350   0.41150   0.01267  Uiso   1.00
C4     C     0.86080   0.10650   0.31510   0.01267  Uiso   1.00
C5     C     0.70910   0.13250   0.27530   0.01267  Uiso   1.00
C6     C     0.05050   0.10880   0.45690   0.01267  Uiso   1.00
C7     C     0.18700   0.06070   0.41510   0.01267  Uiso   1.00
C8     C     0.34490   0.03080   0.46040   0.01267  Uiso   1.00
C9     C     0.38020   0.05440   0.55780   0.01267  Uiso   1.00
C10    C     0.46920   0.97560   0.40490   0.01267  Uiso   1.00
C11    C     0.27090   0.09570   0.12290   0.01267  Uiso   1.00
C12    C     0.13110   0.04510   0.05900   0.01267  Uiso   1.00
C13    C     0.16200   0.95860   0.00000   0.01267  Uiso   1.00
C14    C     0.96880   0.08730   0.05670   0.01267  Uiso   1.00
C15    C     0.61080   0.28710   0.08150   0.01267  Uiso   1.00
C16    C     0.75770   0.31190   0.03740   0.01267  Uiso   1.00
C17    C     0.89090   0.36650   0.08850   0.01267  Uiso   1.00
C18    C     0.86080   0.39350   0.18490   0.01267  Uiso   1.00
C19    C     0.70910   0.36750   0.22470   0.01267  Uiso   1.00
C20    C     0.05050   0.39120   0.04310   0.01267  Uiso   1.00
C21    C     0.18700   0.43930   0.08490   0.01267  Uiso   1.00
C22    C     0.34490   0.46920   0.03960   0.01267  Uiso   1.00
C23    C     0.38020   0.44560   0.94220   0.01267  Uiso   1.00
C24    C     0.46920   0.52440   0.09510   0.01267  Uiso   1.00
C25    C     0.27090   0.40430   0.37710   0.01267  Uiso   1.00
C26    C     0.13110   0.45490   0.44100   0.01267  Uiso   1.00
C27    C     0.16200   0.54140   0.50000   0.01267  Uiso   1.00
C28    C     0.96880   0.41270   0.44330   0.01267  Uiso   1.00
C29    C     0.38920   0.78710   0.58150   0.01267  Uiso   1.00
C30    C     0.24230   0.81190   0.53740   0.01267  Uiso   1.00
C31    C     0.10910   0.86650   0.58850   0.01267  Uiso   1.00
C32    C     0.13920   0.89350   0.68490   0.01267  Uiso   1.00
C33    C     0.29090   0.86750   0.72470   0.01267  Uiso   1.00
C34    C     0.94950   0.89120   0.54310   0.01267  Uiso   1.00
C35    C     0.81300   0.93930   0.58490   0.01267  Uiso   1.00
C36    C     0.65510   0.96920   0.53960   0.01267  Uiso   1.00
C37    C     0.61980   0.94560   0.44220   0.01267  Uiso   1.00
C38    C     0.53080   0.02440   0.59510   0.01267  Uiso   1.00
C39    C     0.72910   0.90430   0.87710   0.01267  Uiso   1.00
C40    C     0.86890   0.95490   0.94100   0.01267  Uiso   1.00
C41    C     0.83800   0.04140   0.00000   0.01267  Uiso   1.00
C42    C     0.03120   0.91270   0.94330   0.01267  Uiso   1.00
C43    C     0.38920   0.71290   0.91850   0.01267  Uiso   1.00
C44    C     0.24230   0.68810   0.96260   0.01267  Uiso   1.00
C45    C     0.10910   0.63350   0.91150   0.01267  Uiso   1.00
C46    C     0.13920   0.60650   0.81510   0.01267  Uiso   1.00
C47    C     0.29090   0.63250   0.77530   0.01267  Uiso   1.00
C48    C     0.94950   0.60880   0.95690   0.01267  Uiso   1.00
C49    C     0.81300   0.56070   0.91510   0.01267  Uiso   1.00
C50    C     0.65510   0.53080   0.96040   0.01267  Uiso   1.00
C51    C     0.61980   0.55440   0.05780   0.01267  Uiso   1.00
C52    C     0.53080   0.47560   0.90490   0.01267  Uiso   1.00
C53    C     0.72910   0.59570   0.62290   0.01267  Uiso   1.00
C54    C     0.86890   0.54510   0.55900   0.01267  Uiso   1.00
C55    C     0.83800   0.45860   0.50000   0.01267  Uiso   1.00
C56    C     0.03120   0.58730   0.55670   0.01267  Uiso   1.00
N1     N     0.58450   0.18620   0.32390   0.01267  Uiso   1.00
N2     N     0.58450   0.31380   0.17610   0.01267  Uiso   1.00
N3     N     0.41550   0.81380   0.67610   0.01267  Uiso   1.00
N4     N     0.41550   0.68620   0.82390   0.01267  Uiso   1.00
O1     O     0.23740   0.17690   0.16570   0.01267  Uiso   1.00
O2     O     0.41290   0.05940   0.12670   0.01267  Uiso   1.00
O3     O     0.23740   0.32310   0.33430   0.01267  Uiso   1.00
O4     O     0.41290   0.44060   0.37330   0.01267  Uiso   1.00
O5     O     0.76260   0.82310   0.83430   0.01267  Uiso   1.00
O6     O     0.58710   0.94060   0.87330   0.01267  Uiso   1.00
O7     O     0.76260   0.67690   0.66570   0.01267  Uiso   1.00
O8     O     0.58710   0.55940   0.62670   0.01267  Uiso   1.00
