data_POJTOY01_clean
_audit_creation_date              2014-07-02
_audit_creation_method            'Materials Studio'
_symmetry_space_group_name_H-M    'P1'
_symmetry_Int_Tables_number       1
_symmetry_cell_setting            triclinic
loop_
_symmetry_equiv_pos_as_xyz
  x,y,z
_cell_length_a                    6.8865
_cell_length_b                    10.5579
_cell_length_c                    13.4662
_cell_angle_alpha                 70.1440
_cell_angle_beta                  88.0580
_cell_angle_gamma                 76.0330
loop_
_atom_site_label
_atom_site_type_symbol
_atom_site_fract_x
_atom_site_fract_y
_atom_site_fract_z
_atom_site_U_iso_or_equiv
_atom_site_adp_type
_atom_site_occupancy
Fe1    Fe    0.53080   0.49680   0.72230   0.01267  Uiso   1.00
Fe2    Fe    0.02660   0.49560   0.71280   0.01267  Uiso   1.00
Fe3    Fe    0.46920   0.50320   0.27770   0.01267  Uiso   1.00
Fe4    Fe    0.97340   0.50440   0.28720   0.01267  Uiso   1.00
H1     H     0.82870   0.83020   0.50640   0.01267  Uiso   1.00
H2     H     0.34000   0.93350   0.55670   0.01267  Uiso   1.00
H3     H     0.73630   0.14550   0.68160   0.01267  Uiso   1.00
H4     H     0.87920   0.90780   0.71690   0.01267  Uiso   1.00
H5     H     0.33220   0.82680   0.78640   0.01267  Uiso   1.00
H6     H     0.18930   0.06450   0.75110   0.01267  Uiso   1.00
H7     H     0.21030   0.15400   0.96150   0.01267  Uiso   1.00
H8     H     0.66200   0.08160   0.93860   0.01267  Uiso   1.00
H9     H     0.17130   0.16980   0.49360   0.01267  Uiso   1.00
H10    H     0.66000   0.06650   0.44330   0.01267  Uiso   1.00
H11    H     0.26370   0.85450   0.31840   0.01267  Uiso   1.00
H12    H     0.12080   0.09220   0.28310   0.01267  Uiso   1.00
H13    H     0.66780   0.17320   0.21360   0.01267  Uiso   1.00
H14    H     0.81070   0.93550   0.24890   0.01267  Uiso   1.00
H15    H     0.78970   0.84600   0.03850   0.01267  Uiso   1.00
H16    H     0.33800   0.91840   0.06140   0.01267  Uiso   1.00
C1     C     0.09840   0.86230   0.53680   0.01267  Uiso   1.00
C2     C     0.90010   0.90100   0.50370   0.01267  Uiso   1.00
C3     C     0.19820   0.96130   0.53300   0.01267  Uiso   1.00
C4     C     0.20820   0.70850   0.57780   0.01267  Uiso   1.00
C5     C     0.45090   0.12470   0.71340   0.01267  Uiso   1.00
C6     C     0.65200   0.07910   0.70340   0.01267  Uiso   1.00
C7     C     0.73530   0.94050   0.72400   0.01267  Uiso   1.00
C8     C     0.61760   0.84760   0.75460   0.01267  Uiso   1.00
C9     C     0.41650   0.89320   0.76460   0.01267  Uiso   1.00
C10    C     0.33320   0.03180   0.74390   0.01267  Uiso   1.00
C11    C     0.36090   0.27450   0.69110   0.01267  Uiso   1.00
C12    C     0.70760   0.69780   0.77690   0.01267  Uiso   1.00
C13    C     0.92550   0.13730   0.94170   0.01267  Uiso   1.00
C14    C     0.12260   0.08980   0.97750   0.01267  Uiso   1.00
C15    C     0.80300   0.04760   0.96420   0.01267  Uiso   1.00
C16    C     0.84460   0.28670   0.87840   0.01267  Uiso   1.00
C17    C     0.90160   0.13770   0.46320   0.01267  Uiso   1.00
C18    C     0.09990   0.09900   0.49630   0.01267  Uiso   1.00
C19    C     0.80180   0.03870   0.46700   0.01267  Uiso   1.00
C20    C     0.79180   0.29150   0.42220   0.01267  Uiso   1.00
C21    C     0.54910   0.87530   0.28660   0.01267  Uiso   1.00
C22    C     0.34800   0.92090   0.29660   0.01267  Uiso   1.00
C23    C     0.26470   0.05950   0.27600   0.01267  Uiso   1.00
C24    C     0.38240   0.15240   0.24540   0.01267  Uiso   1.00
C25    C     0.58350   0.10680   0.23540   0.01267  Uiso   1.00
C26    C     0.66680   0.96820   0.25610   0.01267  Uiso   1.00
C27    C     0.63910   0.72550   0.30890   0.01267  Uiso   1.00
C28    C     0.29240   0.30220   0.22310   0.01267  Uiso   1.00
C29    C     0.07450   0.86270   0.05830   0.01267  Uiso   1.00
C30    C     0.87740   0.91020   0.02250   0.01267  Uiso   1.00
C31    C     0.19700   0.95240   0.03580   0.01267  Uiso   1.00
C32    C     0.15540   0.71330   0.12160   0.01267  Uiso   1.00
O1     O     0.27500   0.49480   0.78500   0.01267  Uiso   1.00
O2     O     0.78370   0.50420   0.64200   0.01267  Uiso   1.00
O3     O     0.11700   0.61690   0.57890   0.01267  Uiso   1.00
O4     O     0.39060   0.67240   0.61080   0.01267  Uiso   1.00
O5     O     0.46750   0.36160   0.65660   0.01267  Uiso   1.00
O6     O     0.17710   0.31590   0.70640   0.01267  Uiso   1.00
O7     O     0.89530   0.65460   0.77250   0.01267  Uiso   1.00
O8     O     0.59700   0.61250   0.80040   0.01267  Uiso   1.00
O9     O     0.95680   0.37060   0.86010   0.01267  Uiso   1.00
O10    O     0.66350   0.33000   0.84270   0.01267  Uiso   1.00
O11    O     0.72500   0.50520   0.21500   0.01267  Uiso   1.00
O12    O     0.21630   0.49580   0.35800   0.01267  Uiso   1.00
O13    O     0.88300   0.38310   0.42110   0.01267  Uiso   1.00
O14    O     0.60940   0.32760   0.38920   0.01267  Uiso   1.00
O15    O     0.53250   0.63840   0.34340   0.01267  Uiso   1.00
O16    O     0.82290   0.68410   0.29360   0.01267  Uiso   1.00
O17    O     0.10470   0.34540   0.22750   0.01267  Uiso   1.00
O18    O     0.40300   0.38750   0.19960   0.01267  Uiso   1.00
O19    O     0.04320   0.62940   0.13990   0.01267  Uiso   1.00
O20    O     0.33650   0.67000   0.15730   0.01267  Uiso   1.00
