data_POKXIX_clean
_audit_creation_date              2014-07-02
_audit_creation_method            'Materials Studio'
_symmetry_space_group_name_H-M    'P1'
_symmetry_Int_Tables_number       1
_symmetry_cell_setting            triclinic
loop_
_symmetry_equiv_pos_as_xyz
  x,y,z
_cell_length_a                    7.0816
_cell_length_b                    18.0451
_cell_length_c                    21.0177
_cell_angle_alpha                 90.0000
_cell_angle_beta                  90.0000
_cell_angle_gamma                 91.8690
loop_
_atom_site_label
_atom_site_type_symbol
_atom_site_fract_x
_atom_site_fract_y
_atom_site_fract_z
_atom_site_U_iso_or_equiv
_atom_site_adp_type
_atom_site_occupancy
K1     K     0.39243   0.89266   0.66558   0.01267  Uiso   1.00
K2     K     0.37448   0.60340   0.66569   0.01267  Uiso   1.00
K3     K     0.51233   0.74826   0.76834   0.01267  Uiso   1.00
K4     K     0.10757   0.10734   0.16558   0.01267  Uiso   1.00
K5     K     0.12552   0.39660   0.16569   0.01267  Uiso   1.00
K6     K     0.98767   0.25174   0.26834   0.01267  Uiso   1.00
K7     K     0.60757   0.10734   0.33442   0.01267  Uiso   1.00
K8     K     0.62552   0.39660   0.33431   0.01267  Uiso   1.00
K9     K     0.48767   0.25174   0.23166   0.01267  Uiso   1.00
K10    K     0.89243   0.89266   0.83442   0.01267  Uiso   1.00
K11    K     0.87448   0.60340   0.83431   0.01267  Uiso   1.00
K12    K     0.01233   0.74826   0.73166   0.01267  Uiso   1.00
H1     H     0.63740   0.72440   0.60540   0.01267  Uiso   1.00
H2     H     0.72830   0.72110   0.49830   0.01267  Uiso   1.00
H3     H     0.20040   0.76720   0.44350   0.01267  Uiso   1.00
H4     H     0.10400   0.76940   0.54980   0.01267  Uiso   1.00
H5     H     0.95040   0.62410   0.62110   0.01267  Uiso   1.00
H6     H     0.06830   0.51340   0.58350   0.01267  Uiso   1.00
H7     H     0.75980   0.39790   0.71300   0.01267  Uiso   1.00
H8     H     0.64070   0.50720   0.75220   0.01267  Uiso   1.00
H9     H     0.96190   0.86720   0.62150   0.01267  Uiso   1.00
H10    H     0.09070   0.97530   0.57680   0.01267  Uiso   1.00
H11    H     0.81520   0.09800   0.70580   0.01267  Uiso   1.00
H12    H     0.68080   0.99100   0.75010   0.01267  Uiso   1.00
H13    H     0.46470   0.08060   0.58430   0.01267  Uiso   1.00
H14    H     0.65730   0.06330   0.54780   0.01267  Uiso   1.00
H15    H     0.70940   0.94200   0.51070   0.01267  Uiso   1.00
H16    H     0.55280   0.87720   0.52230   0.01267  Uiso   1.00
H17    H     0.24970   0.52300   0.48320   0.01267  Uiso   1.00
H18    H     0.32440   0.60540   0.50040   0.01267  Uiso   1.00
H19    H     0.53120   0.43530   0.59370   0.01267  Uiso   1.00
H20    H     0.37520   0.42020   0.53960   0.01267  Uiso   1.00
H21    H     0.86260   0.27560   0.10540   0.01267  Uiso   1.00
H22    H     0.77170   0.27890   0.99830   0.01267  Uiso   1.00
H23    H     0.29960   0.23280   0.94350   0.01267  Uiso   1.00
H24    H     0.39600   0.23060   0.04980   0.01267  Uiso   1.00
H25    H     0.54960   0.37590   0.12110   0.01267  Uiso   1.00
H26    H     0.43170   0.48660   0.08350   0.01267  Uiso   1.00
H27    H     0.74020   0.60210   0.21300   0.01267  Uiso   1.00
H28    H     0.85930   0.49280   0.25220   0.01267  Uiso   1.00
H29    H     0.53810   0.13280   0.12150   0.01267  Uiso   1.00
H30    H     0.40930   0.02470   0.07680   0.01267  Uiso   1.00
H31    H     0.68480   0.90200   0.20580   0.01267  Uiso   1.00
H32    H     0.81920   0.00900   0.25010   0.01267  Uiso   1.00
H33    H     0.03530   0.91940   0.08430   0.01267  Uiso   1.00
H34    H     0.84270   0.93670   0.04780   0.01267  Uiso   1.00
H35    H     0.79060   0.05800   0.01070   0.01267  Uiso   1.00
H36    H     0.94720   0.12280   0.02230   0.01267  Uiso   1.00
H37    H     0.25030   0.47700   0.98320   0.01267  Uiso   1.00
H38    H     0.17560   0.39460   0.00040   0.01267  Uiso   1.00
H39    H     0.96880   0.56470   0.09370   0.01267  Uiso   1.00
H40    H     0.12480   0.57980   0.03960   0.01267  Uiso   1.00
H41    H     0.36260   0.27560   0.39460   0.01267  Uiso   1.00
H42    H     0.27170   0.27890   0.50170   0.01267  Uiso   1.00
H43    H     0.79960   0.23280   0.55650   0.01267  Uiso   1.00
H44    H     0.89600   0.23060   0.45020   0.01267  Uiso   1.00
H45    H     0.04960   0.37590   0.37890   0.01267  Uiso   1.00
H46    H     0.93170   0.48660   0.41650   0.01267  Uiso   1.00
H47    H     0.24020   0.60210   0.28700   0.01267  Uiso   1.00
H48    H     0.35930   0.49280   0.24780   0.01267  Uiso   1.00
H49    H     0.03810   0.13280   0.37850   0.01267  Uiso   1.00
H50    H     0.90930   0.02470   0.42320   0.01267  Uiso   1.00
H51    H     0.18480   0.90200   0.29420   0.01267  Uiso   1.00
H52    H     0.31920   0.00900   0.24990   0.01267  Uiso   1.00
H53    H     0.53530   0.91940   0.41570   0.01267  Uiso   1.00
H54    H     0.34270   0.93670   0.45220   0.01267  Uiso   1.00
H55    H     0.29060   0.05800   0.48930   0.01267  Uiso   1.00
H56    H     0.44720   0.12280   0.47770   0.01267  Uiso   1.00
H57    H     0.75030   0.47700   0.51680   0.01267  Uiso   1.00
H58    H     0.67560   0.39460   0.49960   0.01267  Uiso   1.00
H59    H     0.46880   0.56470   0.40630   0.01267  Uiso   1.00
H60    H     0.62480   0.57980   0.46040   0.01267  Uiso   1.00
H61    H     0.13740   0.72440   0.89460   0.01267  Uiso   1.00
H62    H     0.22830   0.72110   0.00170   0.01267  Uiso   1.00
H63    H     0.70040   0.76720   0.05650   0.01267  Uiso   1.00
H64    H     0.60400   0.76940   0.95020   0.01267  Uiso   1.00
H65    H     0.45040   0.62410   0.87890   0.01267  Uiso   1.00
H66    H     0.56830   0.51340   0.91650   0.01267  Uiso   1.00
H67    H     0.25980   0.39790   0.78700   0.01267  Uiso   1.00
H68    H     0.14070   0.50720   0.74780   0.01267  Uiso   1.00
H69    H     0.46190   0.86720   0.87850   0.01267  Uiso   1.00
H70    H     0.59070   0.97530   0.92320   0.01267  Uiso   1.00
H71    H     0.31520   0.09800   0.79420   0.01267  Uiso   1.00
H72    H     0.18080   0.99100   0.74990   0.01267  Uiso   1.00
H73    H     0.96470   0.08060   0.91570   0.01267  Uiso   1.00
H74    H     0.15730   0.06330   0.95220   0.01267  Uiso   1.00
H75    H     0.20940   0.94200   0.98930   0.01267  Uiso   1.00
H76    H     0.05280   0.87720   0.97770   0.01267  Uiso   1.00
H77    H     0.74970   0.52300   0.01680   0.01267  Uiso   1.00
H78    H     0.82440   0.60540   0.99960   0.01267  Uiso   1.00
H79    H     0.03120   0.43530   0.90630   0.01267  Uiso   1.00
H80    H     0.87520   0.42020   0.96040   0.01267  Uiso   1.00
C1     C     0.35860   0.74660   0.59030   0.01267  Uiso   1.00
C2     C     0.54660   0.73270   0.57310   0.01267  Uiso   1.00
C3     C     0.60140   0.73110   0.50910   0.01267  Uiso   1.00
C4     C     0.47300   0.74390   0.46200   0.01267  Uiso   1.00
C5     C     0.28850   0.75820   0.47650   0.01267  Uiso   1.00
C6     C     0.23170   0.75950   0.54010   0.01267  Uiso   1.00
C7     C     0.78540   0.58000   0.69280   0.01267  Uiso   1.00
C8     C     0.91220   0.57870   0.64090   0.01267  Uiso   1.00
C9     C     0.98240   0.51260   0.61820   0.01267  Uiso   1.00
C10    C     0.92760   0.44590   0.64590   0.01267  Uiso   1.00
C11    C     0.79990   0.44400   0.69490   0.01267  Uiso   1.00
C12    C     0.72930   0.50940   0.71830   0.01267  Uiso   1.00
C13    C     0.80900   0.91550   0.69240   0.01267  Uiso   1.00
C14    C     0.93180   0.91380   0.63930   0.01267  Uiso   1.00
C15    C     0.00930   0.97810   0.61260   0.01267  Uiso   1.00
C16    C     0.96820   0.04590   0.63800   0.01267  Uiso   1.00
C17    C     0.84510   0.05090   0.68910   0.01267  Uiso   1.00
C18    C     0.76620   0.98700   0.71550   0.01267  Uiso   1.00
C19    C     0.52020   0.05090   0.54980   0.01267  Uiso   1.00
C20    C     0.57180   0.93070   0.51310   0.01267  Uiso   1.00
C21    C     0.36180   0.55320   0.49680   0.01267  Uiso   1.00
C22    C     0.48460   0.45260   0.55200   0.01267  Uiso   1.00
C23    C     0.14140   0.25340   0.09030   0.01267  Uiso   1.00
C24    C     0.95340   0.26730   0.07310   0.01267  Uiso   1.00
C25    C     0.89860   0.26890   0.00910   0.01267  Uiso   1.00
C26    C     0.02700   0.25610   0.96200   0.01267  Uiso   1.00
C27    C     0.21150   0.24180   0.97650   0.01267  Uiso   1.00
C28    C     0.26830   0.24050   0.04010   0.01267  Uiso   1.00
C29    C     0.71460   0.42000   0.19280   0.01267  Uiso   1.00
C30    C     0.58780   0.42130   0.14090   0.01267  Uiso   1.00
C31    C     0.51760   0.48740   0.11820   0.01267  Uiso   1.00
C32    C     0.57240   0.55410   0.14590   0.01267  Uiso   1.00
C33    C     0.70010   0.55600   0.19490   0.01267  Uiso   1.00
C34    C     0.77070   0.49060   0.21830   0.01267  Uiso   1.00
C35    C     0.69100   0.08450   0.19240   0.01267  Uiso   1.00
C36    C     0.56820   0.08620   0.13930   0.01267  Uiso   1.00
C37    C     0.49070   0.02190   0.11260   0.01267  Uiso   1.00
C38    C     0.53180   0.95410   0.13800   0.01267  Uiso   1.00
C39    C     0.65490   0.94910   0.18910   0.01267  Uiso   1.00
C40    C     0.73380   0.01300   0.21550   0.01267  Uiso   1.00
C41    C     0.97980   0.94910   0.04980   0.01267  Uiso   1.00
C42    C     0.92820   0.06930   0.01310   0.01267  Uiso   1.00
C43    C     0.13820   0.44680   0.99680   0.01267  Uiso   1.00
C44    C     0.01540   0.54740   0.05200   0.01267  Uiso   1.00
C45    C     0.64140   0.25340   0.40970   0.01267  Uiso   1.00
C46    C     0.45340   0.26730   0.42690   0.01267  Uiso   1.00
C47    C     0.39860   0.26890   0.49090   0.01267  Uiso   1.00
C48    C     0.52700   0.25610   0.53800   0.01267  Uiso   1.00
C49    C     0.71150   0.24180   0.52350   0.01267  Uiso   1.00
C50    C     0.76830   0.24050   0.45990   0.01267  Uiso   1.00
C51    C     0.21460   0.42000   0.30720   0.01267  Uiso   1.00
C52    C     0.08780   0.42130   0.35910   0.01267  Uiso   1.00
C53    C     0.01760   0.48740   0.38180   0.01267  Uiso   1.00
C54    C     0.07240   0.55410   0.35410   0.01267  Uiso   1.00
C55    C     0.20010   0.55600   0.30510   0.01267  Uiso   1.00
C56    C     0.27070   0.49060   0.28170   0.01267  Uiso   1.00
C57    C     0.19100   0.08450   0.30760   0.01267  Uiso   1.00
C58    C     0.06820   0.08620   0.36070   0.01267  Uiso   1.00
C59    C     0.99070   0.02190   0.38740   0.01267  Uiso   1.00
C60    C     0.03180   0.95410   0.36200   0.01267  Uiso   1.00
C61    C     0.15490   0.94910   0.31090   0.01267  Uiso   1.00
C62    C     0.23380   0.01300   0.28450   0.01267  Uiso   1.00
C63    C     0.47980   0.94910   0.45020   0.01267  Uiso   1.00
C64    C     0.42820   0.06930   0.48690   0.01267  Uiso   1.00
C65    C     0.63820   0.44680   0.50320   0.01267  Uiso   1.00
C66    C     0.51540   0.54740   0.44800   0.01267  Uiso   1.00
C67    C     0.85860   0.74660   0.90970   0.01267  Uiso   1.00
C68    C     0.04660   0.73270   0.92690   0.01267  Uiso   1.00
C69    C     0.10140   0.73110   0.99090   0.01267  Uiso   1.00
C70    C     0.97300   0.74390   0.03800   0.01267  Uiso   1.00
C71    C     0.78850   0.75820   0.02350   0.01267  Uiso   1.00
C72    C     0.73170   0.75950   0.95990   0.01267  Uiso   1.00
C73    C     0.28540   0.58000   0.80720   0.01267  Uiso   1.00
C74    C     0.41220   0.57870   0.85910   0.01267  Uiso   1.00
C75    C     0.48240   0.51260   0.88180   0.01267  Uiso   1.00
C76    C     0.42760   0.44590   0.85410   0.01267  Uiso   1.00
C77    C     0.29990   0.44400   0.80510   0.01267  Uiso   1.00
C78    C     0.22930   0.50940   0.78170   0.01267  Uiso   1.00
C79    C     0.30900   0.91550   0.80760   0.01267  Uiso   1.00
C80    C     0.43180   0.91380   0.86070   0.01267  Uiso   1.00
C81    C     0.50930   0.97810   0.88740   0.01267  Uiso   1.00
C82    C     0.46820   0.04590   0.86200   0.01267  Uiso   1.00
C83    C     0.34510   0.05090   0.81090   0.01267  Uiso   1.00
C84    C     0.26620   0.98700   0.78450   0.01267  Uiso   1.00
C85    C     0.02020   0.05090   0.95020   0.01267  Uiso   1.00
C86    C     0.07180   0.93070   0.98690   0.01267  Uiso   1.00
C87    C     0.86180   0.55320   0.00320   0.01267  Uiso   1.00
C88    C     0.98460   0.45260   0.94800   0.01267  Uiso   1.00
Cl1    Cl    0.54180   0.74128   0.38186   0.01267  Uiso   1.00
Cl2    Cl    0.02370   0.36417   0.61803   0.01267  Uiso   1.00
Cl3    Cl    0.07000   0.12700   0.60528   0.01267  Uiso   1.00
Cl4    Cl    0.95820   0.25872   0.88186   0.01267  Uiso   1.00
Cl5    Cl    0.47630   0.63583   0.11803   0.01267  Uiso   1.00
Cl6    Cl    0.43000   0.87300   0.10528   0.01267  Uiso   1.00
Cl7    Cl    0.45820   0.25872   0.61814   0.01267  Uiso   1.00
Cl8    Cl    0.97630   0.63583   0.38197   0.01267  Uiso   1.00
Cl9    Cl    0.93000   0.87300   0.39472   0.01267  Uiso   1.00
Cl10   Cl    0.04180   0.74128   0.11814   0.01267  Uiso   1.00
Cl11   Cl    0.52370   0.36417   0.88197   0.01267  Uiso   1.00
Cl12   Cl    0.57000   0.12700   0.89472   0.01267  Uiso   1.00
O1     O     0.30540   0.74785   0.65051   0.01267  Uiso   1.00
O2     O     0.72200   0.64137   0.71650   0.01267  Uiso   1.00
O3     O     0.73480   0.85513   0.71814   0.01267  Uiso   1.00
O4     O     0.49060   0.97340   0.56296   0.01267  Uiso   1.00
O5     O     0.42610   0.52751   0.55770   0.01267  Uiso   1.00
O6     O     0.19460   0.25215   0.15051   0.01267  Uiso   1.00
O7     O     0.77800   0.35863   0.21650   0.01267  Uiso   1.00
O8     O     0.76520   0.14487   0.21814   0.01267  Uiso   1.00
O9     O     0.00940   0.02660   0.06296   0.01267  Uiso   1.00
O10    O     0.07390   0.47249   0.05770   0.01267  Uiso   1.00
O11    O     0.69460   0.25215   0.34949   0.01267  Uiso   1.00
O12    O     0.27800   0.35863   0.28350   0.01267  Uiso   1.00
O13    O     0.26520   0.14487   0.28186   0.01267  Uiso   1.00
O14    O     0.50940   0.02660   0.43704   0.01267  Uiso   1.00
O15    O     0.57390   0.47249   0.44230   0.01267  Uiso   1.00
O16    O     0.80540   0.74785   0.84949   0.01267  Uiso   1.00
O17    O     0.22200   0.64137   0.78350   0.01267  Uiso   1.00
O18    O     0.23480   0.85513   0.78186   0.01267  Uiso   1.00
O19    O     0.99060   0.97340   0.93704   0.01267  Uiso   1.00
O20    O     0.92610   0.52751   0.94230   0.01267  Uiso   1.00
