data_POZKUL_clean
_audit_creation_date              2014-07-02
_audit_creation_method            'Materials Studio'
_symmetry_space_group_name_H-M    'P1'
_symmetry_Int_Tables_number       1
_symmetry_cell_setting            triclinic
loop_
_symmetry_equiv_pos_as_xyz
  x,y,z
_cell_length_a                    6.5790
_cell_length_b                    10.6662
_cell_length_c                    10.6662
_cell_angle_alpha                 117.1770
_cell_angle_beta                  107.8840
_cell_angle_gamma                 72.1155
loop_
_atom_site_label
_atom_site_type_symbol
_atom_site_fract_x
_atom_site_fract_y
_atom_site_fract_z
_atom_site_U_iso_or_equiv
_atom_site_adp_type
_atom_site_occupancy
Sn1    Sn    0.50000   0.50000   0.00000   0.01267  Uiso   1.00
Sn2    Sn    0.00000   0.00000   0.50000   0.01267  Uiso   1.00
H1     H     0.50010   0.57680   0.26740   0.01267  Uiso   1.00
H2     H     0.32850   0.69210   0.21670   0.01267  Uiso   1.00
H3     H     0.26880   0.54580   0.17900   0.01267  Uiso   1.00
H4     H     0.99990   0.26740   0.57680   0.01267  Uiso   1.00
H5     H     0.17150   0.21670   0.69210   0.01267  Uiso   1.00
H6     H     0.23120   0.17900   0.54580   0.01267  Uiso   1.00
H7     H     0.49990   0.42320   0.73260   0.01267  Uiso   1.00
H8     H     0.67150   0.30790   0.78330   0.01267  Uiso   1.00
H9     H     0.73120   0.45420   0.82100   0.01267  Uiso   1.00
H10    H     0.00010   0.73260   0.42320   0.01267  Uiso   1.00
H11    H     0.82850   0.78330   0.30790   0.01267  Uiso   1.00
H12    H     0.76880   0.82100   0.45420   0.01267  Uiso   1.00
Au1    Au    0.50000   0.00000   0.00000   0.01267  Uiso   1.00
Au2    Au    0.00000   0.00000   0.00000   0.01267  Uiso   1.00
Au3    Au    0.25000   0.27294   0.27294   0.01267  Uiso   1.00
Au4    Au    0.75000   0.72706   0.72706   0.01267  Uiso   1.00
C1     C     0.45600   0.17740   0.96900   0.01267  Uiso   1.00
C2     C     0.99080   0.37600   0.17980   0.01267  Uiso   1.00
C3     C     0.38350   0.59100   0.19180   0.01267  Uiso   1.00
C4     C     0.04400   0.96900   0.17740   0.01267  Uiso   1.00
C5     C     0.50920   0.17980   0.37600   0.01267  Uiso   1.00
C6     C     0.11650   0.19180   0.59100   0.01267  Uiso   1.00
C7     C     0.54400   0.82260   0.03100   0.01267  Uiso   1.00
C8     C     0.00920   0.62400   0.82020   0.01267  Uiso   1.00
C9     C     0.61650   0.40900   0.80820   0.01267  Uiso   1.00
C10    C     0.95600   0.03100   0.82260   0.01267  Uiso   1.00
C11    C     0.49080   0.82020   0.62400   0.01267  Uiso   1.00
C12    C     0.88350   0.80820   0.40900   0.01267  Uiso   1.00
N1     N     0.43250   0.28060   0.95520   0.01267  Uiso   1.00
N2     N     0.84200   0.43360   0.12220   0.01267  Uiso   1.00
N3     N     0.06750   0.95520   0.28060   0.01267  Uiso   1.00
N4     N     0.65800   0.12220   0.43360   0.01267  Uiso   1.00
N5     N     0.56750   0.71940   0.04480   0.01267  Uiso   1.00
N6     N     0.15800   0.56640   0.87780   0.01267  Uiso   1.00
N7     N     0.93250   0.04480   0.71940   0.01267  Uiso   1.00
N8     N     0.34200   0.87780   0.56640   0.01267  Uiso   1.00
