data_QALGUH_clean
_audit_creation_date              2014-07-02
_audit_creation_method            'Materials Studio'
_symmetry_space_group_name_H-M    'P1'
_symmetry_Int_Tables_number       1
_symmetry_cell_setting            triclinic
loop_
_symmetry_equiv_pos_as_xyz
  x,y,z
_cell_length_a                    6.8365
_cell_length_b                    11.1843
_cell_length_c                    11.1843
_cell_angle_alpha                 83.3508
_cell_angle_beta                  72.2039
_cell_angle_gamma                 72.2040
loop_
_atom_site_label
_atom_site_type_symbol
_atom_site_fract_x
_atom_site_fract_y
_atom_site_fract_z
_atom_site_U_iso_or_equiv
_atom_site_adp_type
_atom_site_occupancy
Cr1    Cr    0.00000   0.00000   0.50000   0.01267  Uiso   1.00
Cr2    Cr    0.50000   1.00000   0.50000   0.01267  Uiso   1.00
H1     H     0.14530   0.00380   0.11020   0.01267  Uiso   1.00
H2     H     0.74070   0.61020   0.50380   0.01267  Uiso   1.00
H3     H     0.85470   0.38980   0.49620   0.01267  Uiso   1.00
H4     H     0.25930   0.99620   0.88980   0.01267  Uiso   1.00
H5     H     0.85470   0.99620   0.88980   0.01267  Uiso   1.00
H6     H     0.25930   0.38980   0.49620   0.01267  Uiso   1.00
H7     H     0.14530   0.61020   0.50380   0.01267  Uiso   1.00
H8     H     0.74070   0.00380   0.11020   0.01267  Uiso   1.00
C1     C     0.29330   0.00220   0.06420   0.01267  Uiso   1.00
C2     C     0.64030   0.56420   0.50220   0.01267  Uiso   1.00
C3     C     0.70670   0.43580   0.49780   0.01267  Uiso   1.00
C4     C     0.35970   0.99780   0.93580   0.01267  Uiso   1.00
C5     C     0.70670   0.99780   0.93580   0.01267  Uiso   1.00
C6     C     0.35970   0.43580   0.49780   0.01267  Uiso   1.00
C7     C     0.29330   0.56420   0.50220   0.01267  Uiso   1.00
C8     C     0.64030   0.00220   0.06420   0.01267  Uiso   1.00
C9     C     0.43360   0.00430   0.12850   0.01267  Uiso   1.00
C10    C     0.36230   0.00900   0.26640   0.01267  Uiso   1.00
C11    C     0.43360   0.62850   0.50430   0.01267  Uiso   1.00
C12    C     0.36230   0.76640   0.50900   0.01267  Uiso   1.00
C13    C     0.56640   0.37150   0.49570   0.01267  Uiso   1.00
C14    C     0.63770   0.23360   0.49100   0.01267  Uiso   1.00
C15    C     0.56640   0.99570   0.87150   0.01267  Uiso   1.00
C16    C     0.63770   0.99100   0.73360   0.01267  Uiso   1.00
O1     O     0.17390   0.01090   0.32490   0.01267  Uiso   1.00
O2     O     0.49030   0.82490   0.51090   0.01267  Uiso   1.00
O3     O     0.82610   0.17510   0.48910   0.01267  Uiso   1.00
O4     O     0.50970   0.98910   0.67510   0.01267  Uiso   1.00
O5     O     0.82610   0.98910   0.67510   0.01267  Uiso   1.00
O6     O     0.50970   0.17510   0.48910   0.01267  Uiso   1.00
O7     O     0.17390   0.82490   0.51090   0.01267  Uiso   1.00
O8     O     0.49030   0.01090   0.32490   0.01267  Uiso   1.00
O9     O     0.19850   0.05150   0.55150   0.01267  Uiso   1.00
O10    O     0.80150   0.94850   0.44850   0.01267  Uiso   1.00
