data_QAMVEH_clean
_audit_creation_date              2014-07-02
_audit_creation_method            'Materials Studio'
_symmetry_space_group_name_H-M    'P1'
_symmetry_Int_Tables_number       1
_symmetry_cell_setting            triclinic
loop_
_symmetry_equiv_pos_as_xyz
  x,y,z
_cell_length_a                    16.5126
_cell_length_b                    16.5126
_cell_length_c                    24.5098
_cell_angle_alpha                 90.0000
_cell_angle_beta                  90.0000
_cell_angle_gamma                 120.0000
loop_
_atom_site_label
_atom_site_type_symbol
_atom_site_fract_x
_atom_site_fract_y
_atom_site_fract_z
_atom_site_U_iso_or_equiv
_atom_site_adp_type
_atom_site_occupancy
Ce1    Ce    0.92295   0.92295   0.00000   0.01267  Uiso   1.00
Ce2    Ce    0.00000   0.07705   0.66667   0.01267  Uiso   1.00
Ce3    Ce    0.07705  -0.00000   0.33333   0.01267  Uiso   1.00
Ce4    Ce    0.07705   0.07705   0.50000   0.01267  Uiso   1.00
Ce5    Ce    0.00000   0.92295   0.16667   0.01267  Uiso   1.00
Ce6    Ce    0.92295  -0.00000   0.83333   0.01267  Uiso   1.00
H1     H     0.02180   0.68340   0.99710   0.01267  Uiso   1.00
H2     H     0.11350   0.61320   0.01210   0.01267  Uiso   1.00
H3     H     0.28120   0.82580   0.10950   0.01267  Uiso   1.00
H4     H     0.18860   0.89590   0.09650   0.01267  Uiso   1.00
H5     H     0.14970   0.53410   0.06510   0.01267  Uiso   1.00
H6     H     0.12480   0.39340   0.01740   0.01267  Uiso   1.00
H7     H     0.04190   0.23430   0.02070   0.01267  Uiso   1.00
H8     H     0.66160   0.97820   0.66377   0.01267  Uiso   1.00
H9     H     0.49970   0.88650   0.67877   0.01267  Uiso   1.00
H10    H     0.54460   0.71880   0.77617   0.01267  Uiso   1.00
H11    H     0.70730   0.81140   0.76317   0.01267  Uiso   1.00
H12    H     0.38440   0.85030   0.73177   0.01267  Uiso   1.00
H13    H     0.26860   0.87520   0.68407   0.01267  Uiso   1.00
H14    H     0.19240   0.95810   0.68737   0.01267  Uiso   1.00
H15    H     0.31660   0.33840   0.33043   0.01267  Uiso   1.00
H16    H     0.38680   0.50030   0.34543   0.01267  Uiso   1.00
H17    H     0.17420   0.45540   0.44283   0.01267  Uiso   1.00
H18    H     0.10410   0.29270   0.42983   0.01267  Uiso   1.00
H19    H     0.46590   0.61560   0.39843   0.01267  Uiso   1.00
H20    H     0.60660   0.73140   0.35073   0.01267  Uiso   1.00
H21    H     0.76570   0.80760   0.35403   0.01267  Uiso   1.00
H22    H     0.97820   0.31660   0.49710   0.01267  Uiso   1.00
H23    H     0.88650   0.38680   0.51210   0.01267  Uiso   1.00
H24    H     0.71880   0.17420   0.60950   0.01267  Uiso   1.00
H25    H     0.81140   0.10410   0.59650   0.01267  Uiso   1.00
H26    H     0.85030   0.46590   0.56510   0.01267  Uiso   1.00
H27    H     0.87520   0.60660   0.51740   0.01267  Uiso   1.00
H28    H     0.95810   0.76570   0.52070   0.01267  Uiso   1.00
H29    H     0.33840   0.02180   0.16377   0.01267  Uiso   1.00
H30    H     0.50030   0.11350   0.17877   0.01267  Uiso   1.00
H31    H     0.45540   0.28120   0.27617   0.01267  Uiso   1.00
H32    H     0.29270   0.18860   0.26317   0.01267  Uiso   1.00
H33    H     0.61560   0.14970   0.23177   0.01267  Uiso   1.00
H34    H     0.73140   0.12480   0.18407   0.01267  Uiso   1.00
H35    H     0.80760   0.04190   0.18737   0.01267  Uiso   1.00
H36    H     0.68340   0.66160   0.83043   0.01267  Uiso   1.00
H37    H     0.61320   0.49970   0.84543   0.01267  Uiso   1.00
H38    H     0.82580   0.54460   0.94283   0.01267  Uiso   1.00
H39    H     0.89590   0.70730   0.92983   0.01267  Uiso   1.00
H40    H     0.53410   0.38440   0.89843   0.01267  Uiso   1.00
H41    H     0.39340   0.26860   0.85073   0.01267  Uiso   1.00
H42    H     0.23430   0.19240   0.85403   0.01267  Uiso   1.00
H43    H     0.33840   0.31660   0.66957   0.01267  Uiso   1.00
H44    H     0.50030   0.38680   0.65457   0.01267  Uiso   1.00
H45    H     0.45540   0.17420   0.55717   0.01267  Uiso   1.00
H46    H     0.29270   0.10410   0.57017   0.01267  Uiso   1.00
H47    H     0.61560   0.46590   0.60157   0.01267  Uiso   1.00
H48    H     0.73140   0.60660   0.64927   0.01267  Uiso   1.00
H49    H     0.80760   0.76570   0.64597   0.01267  Uiso   1.00
H50    H     0.68340   0.02180   0.00290   0.01267  Uiso   1.00
H51    H     0.61320   0.11350   0.98790   0.01267  Uiso   1.00
H52    H     0.82580   0.28120   0.89050   0.01267  Uiso   1.00
H53    H     0.89590   0.18860   0.90350   0.01267  Uiso   1.00
H54    H     0.53410   0.14970   0.93490   0.01267  Uiso   1.00
H55    H     0.39340   0.12480   0.98260   0.01267  Uiso   1.00
H56    H     0.23430   0.04190   0.97930   0.01267  Uiso   1.00
H57    H     0.97820   0.66160   0.33623   0.01267  Uiso   1.00
H58    H     0.88650   0.49970   0.32123   0.01267  Uiso   1.00
H59    H     0.71880   0.54460   0.22383   0.01267  Uiso   1.00
H60    H     0.81140   0.70730   0.23683   0.01267  Uiso   1.00
H61    H     0.85030   0.38440   0.26823   0.01267  Uiso   1.00
H62    H     0.87520   0.26860   0.31593   0.01267  Uiso   1.00
H63    H     0.95810   0.19240   0.31263   0.01267  Uiso   1.00
H64    H     0.66160   0.68340   0.16957   0.01267  Uiso   1.00
H65    H     0.49970   0.61320   0.15457   0.01267  Uiso   1.00
H66    H     0.54460   0.82580   0.05717   0.01267  Uiso   1.00
H67    H     0.70730   0.89590   0.07017   0.01267  Uiso   1.00
H68    H     0.38440   0.53410   0.10157   0.01267  Uiso   1.00
H69    H     0.26860   0.39340   0.14927   0.01267  Uiso   1.00
H70    H     0.19240   0.23430   0.14597   0.01267  Uiso   1.00
H71    H     0.31660   0.97820   0.50290   0.01267  Uiso   1.00
H72    H     0.38680   0.88650   0.48790   0.01267  Uiso   1.00
H73    H     0.17420   0.71880   0.39050   0.01267  Uiso   1.00
H74    H     0.10410   0.81140   0.40350   0.01267  Uiso   1.00
H75    H     0.46590   0.85030   0.43490   0.01267  Uiso   1.00
H76    H     0.60660   0.87520   0.48260   0.01267  Uiso   1.00
H77    H     0.76570   0.95810   0.47930   0.01267  Uiso   1.00
H78    H     0.02180   0.33840   0.83623   0.01267  Uiso   1.00
H79    H     0.11350   0.50030   0.82123   0.01267  Uiso   1.00
H80    H     0.28120   0.45540   0.72383   0.01267  Uiso   1.00
H81    H     0.18860   0.29270   0.73683   0.01267  Uiso   1.00
H82    H     0.14970   0.61560   0.76823   0.01267  Uiso   1.00
H83    H     0.12480   0.73140   0.81593   0.01267  Uiso   1.00
H84    H     0.04190   0.80760   0.81263   0.01267  Uiso   1.00
H85    H     0.38680   0.77360   0.08333   0.01267  Uiso   1.00
H86    H     0.38680   0.61320   0.75000   0.01267  Uiso   1.00
H87    H     0.22640   0.61320   0.41667   0.01267  Uiso   1.00
H88    H     0.61320   0.22640   0.58333   0.01267  Uiso   1.00
H89    H     0.61320   0.38680   0.25000   0.01267  Uiso   1.00
H90    H     0.77360   0.38680   0.91667   0.01267  Uiso   1.00
C1     C     0.02850   0.83180   0.04000   0.01267  Uiso   1.00
C2     C     0.09630   0.79450   0.04660   0.01267  Uiso   1.00
C3     C     0.07330   0.71140   0.02020   0.01267  Uiso   1.00
C4     C     0.12930   0.66980   0.02890   0.01267  Uiso   1.00
C5     C     0.20700   0.71240   0.06200   0.01267  Uiso   1.00
C6     C     0.22870   0.79670   0.08710   0.01267  Uiso   1.00
C7     C     0.17330   0.83950   0.07960   0.01267  Uiso   1.00
C8     C     0.25920   0.66350   0.07280   0.01267  Uiso   1.00
C9     C     0.21340   0.56680   0.07270   0.01267  Uiso   1.00
C10    C     0.13770   0.36200   0.04440   0.01267  Uiso   1.00
C11    C     0.08940   0.26650   0.04600   0.01267  Uiso   1.00
C12    C     0.80330   0.97150   0.70667   0.01267  Uiso   1.00
C13    C     0.69820   0.90370   0.71327   0.01267  Uiso   1.00
C14    C     0.63810   0.92670   0.68687   0.01267  Uiso   1.00
C15    C     0.54050   0.87070   0.69557   0.01267  Uiso   1.00
C16    C     0.50540   0.79300   0.72867   0.01267  Uiso   1.00
C17    C     0.56800   0.77130   0.75377   0.01267  Uiso   1.00
C18    C     0.66620   0.82670   0.74627   0.01267  Uiso   1.00
C19    C     0.40430   0.74080   0.73947   0.01267  Uiso   1.00
C20    C     0.35340   0.78660   0.73937   0.01267  Uiso   1.00
C21    C     0.22430   0.86230   0.71107   0.01267  Uiso   1.00
C22    C     0.17710   0.91060   0.71267   0.01267  Uiso   1.00
C23    C     0.16820   0.19670   0.37333   0.01267  Uiso   1.00
C24    C     0.20550   0.30180   0.37993   0.01267  Uiso   1.00
C25    C     0.28860   0.36190   0.35353   0.01267  Uiso   1.00
C26    C     0.33020   0.45950   0.36223   0.01267  Uiso   1.00
C27    C     0.28760   0.49460   0.39533   0.01267  Uiso   1.00
C28    C     0.20330   0.43200   0.42043   0.01267  Uiso   1.00
C29    C     0.16050   0.33380   0.41293   0.01267  Uiso   1.00
C30    C     0.33650   0.59570   0.40613   0.01267  Uiso   1.00
C31    C     0.43320   0.64660   0.40603   0.01267  Uiso   1.00
C32    C     0.63800   0.77570   0.37773   0.01267  Uiso   1.00
C33    C     0.73350   0.82290   0.37933   0.01267  Uiso   1.00
C34    C     0.97150   0.16820   0.54000   0.01267  Uiso   1.00
C35    C     0.90370   0.20550   0.54660   0.01267  Uiso   1.00
C36    C     0.92670   0.28860   0.52020   0.01267  Uiso   1.00
C37    C     0.87070   0.33020   0.52890   0.01267  Uiso   1.00
C38    C     0.79300   0.28760   0.56200   0.01267  Uiso   1.00
C39    C     0.77130   0.20330   0.58710   0.01267  Uiso   1.00
C40    C     0.82670   0.16050   0.57960   0.01267  Uiso   1.00
C41    C     0.74080   0.33650   0.57280   0.01267  Uiso   1.00
C42    C     0.78660   0.43320   0.57270   0.01267  Uiso   1.00
C43    C     0.86230   0.63800   0.54440   0.01267  Uiso   1.00
C44    C     0.91060   0.73350   0.54600   0.01267  Uiso   1.00
C45    C     0.19670   0.02850   0.20667   0.01267  Uiso   1.00
C46    C     0.30180   0.09630   0.21327   0.01267  Uiso   1.00
C47    C     0.36190   0.07330   0.18687   0.01267  Uiso   1.00
C48    C     0.45950   0.12930   0.19557   0.01267  Uiso   1.00
C49    C     0.49460   0.20700   0.22867   0.01267  Uiso   1.00
C50    C     0.43200   0.22870   0.25377   0.01267  Uiso   1.00
C51    C     0.33380   0.17330   0.24627   0.01267  Uiso   1.00
C52    C     0.59570   0.25920   0.23947   0.01267  Uiso   1.00
C53    C     0.64660   0.21340   0.23937   0.01267  Uiso   1.00
C54    C     0.77570   0.13770   0.21107   0.01267  Uiso   1.00
C55    C     0.82290   0.08940   0.21267   0.01267  Uiso   1.00
C56    C     0.83180   0.80330   0.87333   0.01267  Uiso   1.00
C57    C     0.79450   0.69820   0.87993   0.01267  Uiso   1.00
C58    C     0.71140   0.63810   0.85353   0.01267  Uiso   1.00
C59    C     0.66980   0.54050   0.86223   0.01267  Uiso   1.00
C60    C     0.71240   0.50540   0.89533   0.01267  Uiso   1.00
C61    C     0.79670   0.56800   0.92043   0.01267  Uiso   1.00
C62    C     0.83950   0.66620   0.91293   0.01267  Uiso   1.00
C63    C     0.66350   0.40430   0.90613   0.01267  Uiso   1.00
C64    C     0.56680   0.35340   0.90603   0.01267  Uiso   1.00
C65    C     0.36200   0.22430   0.87773   0.01267  Uiso   1.00
C66    C     0.26650   0.17710   0.87933   0.01267  Uiso   1.00
C67    C     0.19670   0.16820   0.62667   0.01267  Uiso   1.00
C68    C     0.30180   0.20550   0.62007   0.01267  Uiso   1.00
C69    C     0.36190   0.28860   0.64647   0.01267  Uiso   1.00
C70    C     0.45950   0.33020   0.63777   0.01267  Uiso   1.00
C71    C     0.49460   0.28760   0.60467   0.01267  Uiso   1.00
C72    C     0.43200   0.20330   0.57957   0.01267  Uiso   1.00
C73    C     0.33380   0.16050   0.58707   0.01267  Uiso   1.00
C74    C     0.59570   0.33650   0.59387   0.01267  Uiso   1.00
C75    C     0.64660   0.43320   0.59397   0.01267  Uiso   1.00
C76    C     0.77570   0.63800   0.62227   0.01267  Uiso   1.00
C77    C     0.82290   0.73350   0.62067   0.01267  Uiso   1.00
C78    C     0.83180   0.02850   0.96000   0.01267  Uiso   1.00
C79    C     0.79450   0.09630   0.95340   0.01267  Uiso   1.00
C80    C     0.71140   0.07330   0.97980   0.01267  Uiso   1.00
C81    C     0.66980   0.12930   0.97110   0.01267  Uiso   1.00
C82    C     0.71240   0.20700   0.93800   0.01267  Uiso   1.00
C83    C     0.79670   0.22870   0.91290   0.01267  Uiso   1.00
C84    C     0.83950   0.17330   0.92040   0.01267  Uiso   1.00
C85    C     0.66350   0.25920   0.92720   0.01267  Uiso   1.00
C86    C     0.56680   0.21340   0.92730   0.01267  Uiso   1.00
C87    C     0.36200   0.13770   0.95560   0.01267  Uiso   1.00
C88    C     0.26650   0.08940   0.95400   0.01267  Uiso   1.00
C89    C     0.97150   0.80330   0.29333   0.01267  Uiso   1.00
C90    C     0.90370   0.69820   0.28673   0.01267  Uiso   1.00
C91    C     0.92670   0.63810   0.31313   0.01267  Uiso   1.00
C92    C     0.87070   0.54050   0.30443   0.01267  Uiso   1.00
C93    C     0.79300   0.50540   0.27133   0.01267  Uiso   1.00
C94    C     0.77130   0.56800   0.24623   0.01267  Uiso   1.00
C95    C     0.82670   0.66620   0.25373   0.01267  Uiso   1.00
C96    C     0.74080   0.40430   0.26053   0.01267  Uiso   1.00
C97    C     0.78660   0.35340   0.26063   0.01267  Uiso   1.00
C98    C     0.86230   0.22430   0.28893   0.01267  Uiso   1.00
C99    C     0.91060   0.17710   0.28733   0.01267  Uiso   1.00
C100   C     0.80330   0.83180   0.12667   0.01267  Uiso   1.00
C101   C     0.69820   0.79450   0.12007   0.01267  Uiso   1.00
C102   C     0.63810   0.71140   0.14647   0.01267  Uiso   1.00
C103   C     0.54050   0.66980   0.13777   0.01267  Uiso   1.00
C104   C     0.50540   0.71240   0.10467   0.01267  Uiso   1.00
C105   C     0.56800   0.79670   0.07957   0.01267  Uiso   1.00
C106   C     0.66620   0.83950   0.08707   0.01267  Uiso   1.00
C107   C     0.40430   0.66350   0.09387   0.01267  Uiso   1.00
C108   C     0.35340   0.56680   0.09397   0.01267  Uiso   1.00
C109   C     0.22430   0.36200   0.12227   0.01267  Uiso   1.00
C110   C     0.17710   0.26650   0.12067   0.01267  Uiso   1.00
C111   C     0.16820   0.97150   0.46000   0.01267  Uiso   1.00
C112   C     0.20550   0.90370   0.45340   0.01267  Uiso   1.00
C113   C     0.28860   0.92670   0.47980   0.01267  Uiso   1.00
C114   C     0.33020   0.87070   0.47110   0.01267  Uiso   1.00
C115   C     0.28760   0.79300   0.43800   0.01267  Uiso   1.00
C116   C     0.20330   0.77130   0.41290   0.01267  Uiso   1.00
C117   C     0.16050   0.82670   0.42040   0.01267  Uiso   1.00
C118   C     0.33650   0.74080   0.42720   0.01267  Uiso   1.00
C119   C     0.43320   0.78660   0.42730   0.01267  Uiso   1.00
C120   C     0.63800   0.86230   0.45560   0.01267  Uiso   1.00
C121   C     0.73350   0.91060   0.45400   0.01267  Uiso   1.00
C122   C     0.02850   0.19670   0.79333   0.01267  Uiso   1.00
C123   C     0.09630   0.30180   0.78673   0.01267  Uiso   1.00
C124   C     0.07330   0.36190   0.81313   0.01267  Uiso   1.00
C125   C     0.12930   0.45950   0.80443   0.01267  Uiso   1.00
C126   C     0.20700   0.49460   0.77133   0.01267  Uiso   1.00
C127   C     0.22870   0.43200   0.74623   0.01267  Uiso   1.00
C128   C     0.17330   0.33380   0.75373   0.01267  Uiso   1.00
C129   C     0.25920   0.59570   0.76053   0.01267  Uiso   1.00
C130   C     0.21340   0.64660   0.76063   0.01267  Uiso   1.00
C131   C     0.13770   0.77570   0.78893   0.01267  Uiso   1.00
C132   C     0.08940   0.82290   0.78733   0.01267  Uiso   1.00
C133   C     0.35430   0.70860   0.08333   0.01267  Uiso   1.00
C134   C     0.25810   0.51620   0.08333   0.01267  Uiso   1.00
C135   C     0.20620   0.41240   0.08333   0.01267  Uiso   1.00
C136   C     0.10810   0.21620   0.08333   0.01267  Uiso   1.00
C137   C     0.05690   0.11380   0.08333   0.01267  Uiso   1.00
C138   C     0.35430   0.64570   0.75000   0.01267  Uiso   1.00
C139   C     0.25810   0.74190   0.75000   0.01267  Uiso   1.00
C140   C     0.20620   0.79380   0.75000   0.01267  Uiso   1.00
C141   C     0.10810   0.89190   0.75000   0.01267  Uiso   1.00
C142   C     0.05690   0.94310   0.75000   0.01267  Uiso   1.00
C143   C     0.29140   0.64570   0.41667   0.01267  Uiso   1.00
C144   C     0.48380   0.74190   0.41667   0.01267  Uiso   1.00
C145   C     0.58760   0.79380   0.41667   0.01267  Uiso   1.00
C146   C     0.78380   0.89190   0.41667   0.01267  Uiso   1.00
C147   C     0.88620   0.94310   0.41667   0.01267  Uiso   1.00
C148   C     0.64570   0.29140   0.58333   0.01267  Uiso   1.00
C149   C     0.74190   0.48380   0.58333   0.01267  Uiso   1.00
C150   C     0.79380   0.58760   0.58333   0.01267  Uiso   1.00
C151   C     0.89190   0.78380   0.58333   0.01267  Uiso   1.00
C152   C     0.94310   0.88620   0.58333   0.01267  Uiso   1.00
C153   C     0.64570   0.35430   0.25000   0.01267  Uiso   1.00
C154   C     0.74190   0.25810   0.25000   0.01267  Uiso   1.00
C155   C     0.79380   0.20620   0.25000   0.01267  Uiso   1.00
C156   C     0.89190   0.10810   0.25000   0.01267  Uiso   1.00
C157   C     0.94310   0.05690   0.25000   0.01267  Uiso   1.00
C158   C     0.70860   0.35430   0.91667   0.01267  Uiso   1.00
C159   C     0.51620   0.25810   0.91667   0.01267  Uiso   1.00
C160   C     0.41240   0.20620   0.91667   0.01267  Uiso   1.00
C161   C     0.21620   0.10810   0.91667   0.01267  Uiso   1.00
C162   C     0.11380   0.05690   0.91667   0.01267  Uiso   1.00
O1     O     0.96770   0.79800   0.00410   0.01267  Uiso   1.00
O2     O     0.03780   0.89860   0.07100   0.01267  Uiso   1.00
O3     O     0.00100   0.07280   0.04530   0.01267  Uiso   1.00
O4     O     0.83030   0.03230   0.67077   0.01267  Uiso   1.00
O5     O     0.86080   0.96220   0.73767   0.01267  Uiso   1.00
O6     O     0.07180   0.99900   0.71197   0.01267  Uiso   1.00
O7     O     0.20200   0.16970   0.33743   0.01267  Uiso   1.00
O8     O     0.10140   0.13920   0.40433   0.01267  Uiso   1.00
O9     O     0.92720   0.92820   0.37863   0.01267  Uiso   1.00
O10    O     0.03230   0.20200   0.50410   0.01267  Uiso   1.00
O11    O     0.96220   0.10140   0.57100   0.01267  Uiso   1.00
O12    O     0.99900   0.92720   0.54530   0.01267  Uiso   1.00
O13    O     0.16970   0.96770   0.17077   0.01267  Uiso   1.00
O14    O     0.13920   0.03780   0.23767   0.01267  Uiso   1.00
O15    O     0.92820   0.00100   0.21197   0.01267  Uiso   1.00
O16    O     0.79800   0.83030   0.83743   0.01267  Uiso   1.00
O17    O     0.89860   0.86080   0.90433   0.01267  Uiso   1.00
O18    O     0.07280   0.07180   0.87863   0.01267  Uiso   1.00
O19    O     0.16970   0.20200   0.66257   0.01267  Uiso   1.00
O20    O     0.13920   0.10140   0.59567   0.01267  Uiso   1.00
O21    O     0.92820   0.92720   0.62137   0.01267  Uiso   1.00
O22    O     0.79800   0.96770   0.99590   0.01267  Uiso   1.00
O23    O     0.89860   0.03780   0.92900   0.01267  Uiso   1.00
O24    O     0.07280   0.00100   0.95470   0.01267  Uiso   1.00
O25    O     0.03230   0.83030   0.32923   0.01267  Uiso   1.00
O26    O     0.96220   0.86080   0.26233   0.01267  Uiso   1.00
O27    O     0.99900   0.07180   0.28803   0.01267  Uiso   1.00
O28    O     0.83030   0.79800   0.16257   0.01267  Uiso   1.00
O29    O     0.86080   0.89860   0.09567   0.01267  Uiso   1.00
O30    O     0.07180   0.07280   0.12137   0.01267  Uiso   1.00
O31    O     0.20200   0.03230   0.49590   0.01267  Uiso   1.00
O32    O     0.10140   0.96220   0.42900   0.01267  Uiso   1.00
O33    O     0.92720   0.99900   0.45470   0.01267  Uiso   1.00
O34    O     0.96770   0.16970   0.82923   0.01267  Uiso   1.00
O35    O     0.03780   0.13920   0.76233   0.01267  Uiso   1.00
O36    O     0.00100   0.92820   0.78803   0.01267  Uiso   1.00
