data_QATHIE_clean
_audit_creation_date              2014-07-02
_audit_creation_method            'Materials Studio'
_symmetry_space_group_name_H-M    'P1'
_symmetry_Int_Tables_number       1
_symmetry_cell_setting            triclinic
loop_
_symmetry_equiv_pos_as_xyz
  x,y,z
_cell_length_a                    9.3341
_cell_length_b                    9.7580
_cell_length_c                    12.8620
_cell_angle_alpha                 111.8300
_cell_angle_beta                  104.5900
_cell_angle_gamma                 91.6400
loop_
_atom_site_label
_atom_site_type_symbol
_atom_site_fract_x
_atom_site_fract_y
_atom_site_fract_z
_atom_site_U_iso_or_equiv
_atom_site_adp_type
_atom_site_occupancy
Zn1    Zn    0.34426   0.54385   0.72197   0.01267  Uiso   1.00
Zn2    Zn    0.65574   0.45615   0.27803   0.01267  Uiso   1.00
H1     H     0.92830   0.78600   0.31660   0.01267  Uiso   1.00
H2     H     0.12750   0.93020   0.86190   0.01267  Uiso   1.00
H3     H     0.21390   0.67170   0.06850   0.01267  Uiso   1.00
H4     H     0.92650   0.33110   0.80600   0.01267  Uiso   1.00
H5     H     0.35590   0.66810   0.54520   0.01267  Uiso   1.00
H6     H     0.23080   0.81100   0.45470   0.01267  Uiso   1.00
H7     H     0.90280   0.78530   0.59730   0.01267  Uiso   1.00
H8     H     0.03550   0.64210   0.68340   0.01267  Uiso   1.00
H9     H     0.45860   0.87830   0.83240   0.01267  Uiso   1.00
H10    H     0.67770   0.03960   0.91890   0.01267  Uiso   1.00
H11    H     0.89780   0.68520   0.85100   0.01267  Uiso   1.00
H12    H     0.67430   0.53630   0.77320   0.01267  Uiso   1.00
H13    H     0.07170   0.21400   0.68340   0.01267  Uiso   1.00
H14    H     0.87250   0.06980   0.13810   0.01267  Uiso   1.00
H15    H     0.78610   0.32830   0.93150   0.01267  Uiso   1.00
H16    H     0.07350   0.66890   0.19400   0.01267  Uiso   1.00
H17    H     0.64410   0.33190   0.45480   0.01267  Uiso   1.00
H18    H     0.76920   0.18900   0.54530   0.01267  Uiso   1.00
H19    H     0.09720   0.21470   0.40270   0.01267  Uiso   1.00
H20    H     0.96450   0.35790   0.31660   0.01267  Uiso   1.00
H21    H     0.54140   0.12170   0.16760   0.01267  Uiso   1.00
H22    H     0.32230   0.96040   0.08110   0.01267  Uiso   1.00
H23    H     0.10220   0.31480   0.14900   0.01267  Uiso   1.00
H24    H     0.32570   0.46370   0.22680   0.01267  Uiso   1.00
C1     C     0.17280   0.50580   0.84220   0.01267  Uiso   1.00
C2     C     0.08570   0.50160   0.92600   0.01267  Uiso   1.00
C3     C     0.12840   0.60270   0.04120   0.01267  Uiso   1.00
C4     C     0.95600   0.39830   0.88350   0.01267  Uiso   1.00
C5     C     0.26460   0.69390   0.55730   0.01267  Uiso   1.00
C6     C     0.18980   0.77990   0.50240   0.01267  Uiso   1.00
C7     C     0.05240   0.81950   0.51910   0.01267  Uiso   1.00
C8     C     0.99590   0.76470   0.58640   0.01267  Uiso   1.00
C9     C     0.07650   0.67880   0.63860   0.01267  Uiso   1.00
C10    C     0.96960   0.91980   0.46530   0.01267  Uiso   1.00
C11    C     0.54840   0.83900   0.83700   0.01267  Uiso   1.00
C12    C     0.67990   0.93730   0.88880   0.01267  Uiso   1.00
C13    C     0.81590   0.88040   0.89500   0.01267  Uiso   1.00
C14    C     0.81000   0.72800   0.84940   0.01267  Uiso   1.00
C15    C     0.67470   0.63900   0.80160   0.01267  Uiso   1.00
C16    C     0.97970   0.97690   0.93700   0.01267  Uiso   1.00
C17    C     0.82720   0.49420   0.15780   0.01267  Uiso   1.00
C18    C     0.91430   0.49840   0.07400   0.01267  Uiso   1.00
C19    C     0.87160   0.39730   0.95880   0.01267  Uiso   1.00
C20    C     0.04400   0.60170   0.11650   0.01267  Uiso   1.00
C21    C     0.73540   0.30610   0.44270   0.01267  Uiso   1.00
C22    C     0.81020   0.22010   0.49760   0.01267  Uiso   1.00
C23    C     0.94760   0.18050   0.48090   0.01267  Uiso   1.00
C24    C     0.00410   0.23530   0.41360   0.01267  Uiso   1.00
C25    C     0.92350   0.32120   0.36140   0.01267  Uiso   1.00
C26    C     0.03040   0.08020   0.53470   0.01267  Uiso   1.00
C27    C     0.45160   0.16100   0.16300   0.01267  Uiso   1.00
C28    C     0.32010   0.06270   0.11120   0.01267  Uiso   1.00
C29    C     0.18410   0.11960   0.10500   0.01267  Uiso   1.00
C30    C     0.19000   0.27200   0.15060   0.01267  Uiso   1.00
C31    C     0.32530   0.36100   0.19840   0.01267  Uiso   1.00
C32    C     0.02030   0.02310   0.06300   0.01267  Uiso   1.00
N1     N     0.21180   0.64680   0.62650   0.01267  Uiso   1.00
N2     N     0.54310   0.69090   0.79330   0.01267  Uiso   1.00
N3     N     0.78820   0.35320   0.37350   0.01267  Uiso   1.00
N4     N     0.45690   0.30910   0.20670   0.01267  Uiso   1.00
O1     O     0.13020   0.41780   0.73730   0.01267  Uiso   1.00
O2     O     0.28700   0.60260   0.87870   0.01267  Uiso   1.00
O3     O     0.95750   0.87570   0.34990   0.01267  Uiso   1.00
O4     O     0.08240   0.88750   0.89070   0.01267  Uiso   1.00
O5     O     0.86980   0.58220   0.26270   0.01267  Uiso   1.00
O6     O     0.71300   0.39740   0.12130   0.01267  Uiso   1.00
O7     O     0.04250   0.12430   0.65010   0.01267  Uiso   1.00
O8     O     0.91760   0.11250   0.10930   0.01267  Uiso   1.00
