data_QATPUX_clean
_audit_creation_date              2014-07-02
_audit_creation_method            'Materials Studio'
_symmetry_space_group_name_H-M    'P1'
_symmetry_Int_Tables_number       1
_symmetry_cell_setting            triclinic
loop_
_symmetry_equiv_pos_as_xyz
  x,y,z
_cell_length_a                    5.4873
_cell_length_b                    7.9296
_cell_length_c                    7.9296
_cell_angle_alpha                 106.6850
_cell_angle_beta                  90.1875
_cell_angle_gamma                 90.1875
loop_
_atom_site_label
_atom_site_type_symbol
_atom_site_fract_x
_atom_site_fract_y
_atom_site_fract_z
_atom_site_U_iso_or_equiv
_atom_site_adp_type
_atom_site_occupancy
Co1    Co    0.50000  -0.00000  -0.00000   0.01267  Uiso   1.00
Co2    Co    0.00000   0.87601   0.12399   0.01267  Uiso   1.00
Co3    Co    0.00000   0.12399   0.87601   0.01267  Uiso   1.00
H1     H     0.84200   0.17100   0.17100   0.01267  Uiso   1.00
H2     H     0.15800   0.82900   0.82900   0.01267  Uiso   1.00
C1     C     0.66040   0.94910   0.43470   0.01267  Uiso   1.00
C2     C     0.42400   0.00596   0.38324   0.01267  Uiso   1.00
C3     C     0.33960   0.56530   0.05090   0.01267  Uiso   1.00
C4     C     0.57600   0.61676   0.99404   0.01267  Uiso   1.00
C5     C     0.33960   0.05090   0.56530   0.01267  Uiso   1.00
C6     C     0.57600   0.99404   0.61676   0.01267  Uiso   1.00
C7     C     0.66040   0.43470   0.94910   0.01267  Uiso   1.00
C8     C     0.42400   0.38324   0.00596   0.01267  Uiso   1.00
O1     O     0.85220   0.88469   0.36029   0.01267  Uiso   1.00
O2     O     0.32770   0.01348   0.24036   0.01267  Uiso   1.00
O3     O     0.14780   0.63971   0.11531   0.01267  Uiso   1.00
O4     O     0.67230   0.75964   0.98652   0.01267  Uiso   1.00
O5     O     0.14780   0.11531   0.63971   0.01267  Uiso   1.00
O6     O     0.67230   0.98652   0.75964   0.01267  Uiso   1.00
O7     O     0.85220   0.36029   0.88469   0.01267  Uiso   1.00
O8     O     0.32770   0.24036   0.01348   0.01267  Uiso   1.00
O9     O     0.82740   0.10050   0.10050   0.01267  Uiso   1.00
O10    O     0.17260   0.89950   0.89950   0.01267  Uiso   1.00
