data_QIWDOQ_clean
_audit_creation_date              2014-07-02
_audit_creation_method            'Materials Studio'
_symmetry_space_group_name_H-M    'P1'
_symmetry_Int_Tables_number       1
_symmetry_cell_setting            triclinic
loop_
_symmetry_equiv_pos_as_xyz
  x,y,z
_cell_length_a                    7.2968
_cell_length_b                    25.0695
_cell_length_c                    29.4572
_cell_angle_alpha                 90.0000
_cell_angle_beta                  91.9200
_cell_angle_gamma                 90.0000
loop_
_atom_site_label
_atom_site_type_symbol
_atom_site_fract_x
_atom_site_fract_y
_atom_site_fract_z
_atom_site_U_iso_or_equiv
_atom_site_adp_type
_atom_site_occupancy
Eu1    Eu    0.89954   0.26605   0.95813   0.01267  Uiso   1.00
Eu2    Eu    0.41602   0.26999   0.99312   0.01267  Uiso   1.00
Eu3    Eu    0.60046   0.76605   0.54187   0.01267  Uiso   1.00
Eu4    Eu    0.08398   0.76999   0.50688   0.01267  Uiso   1.00
Eu5    Eu    0.10046   0.73395   0.04187   0.01267  Uiso   1.00
Eu6    Eu    0.58398   0.73001   0.00688   0.01267  Uiso   1.00
Eu7    Eu    0.39954   0.23395   0.45813   0.01267  Uiso   1.00
Eu8    Eu    0.91602   0.23001   0.49312   0.01267  Uiso   1.00
H1     H     0.27520   0.19200   0.08960   0.01267  Uiso   1.00
H2     H     0.96980   0.08530   0.02030   0.01267  Uiso   1.00
H3     H     0.53010   0.92420   0.02920   0.01267  Uiso   1.00
H4     H     0.26530   0.83950   0.12170   0.01267  Uiso   1.00
H5     H     0.45980   0.00180   0.06700   0.01267  Uiso   1.00
H6     H     0.20220   0.91700   0.16070   0.01267  Uiso   1.00
H7     H     0.06420   0.01890   0.07030   0.01267  Uiso   1.00
H8     H     0.36550   0.12670   0.14000   0.01267  Uiso   1.00
H9     H     0.61710   0.22080   0.14940   0.01267  Uiso   1.00
H10    H     0.01530   0.29200   0.08250   0.01267  Uiso   1.00
H11    H     0.79340   0.22310   0.21510   0.01267  Uiso   1.00
H12    H     0.18940   0.29820   0.14880   0.01267  Uiso   1.00
H13    H     0.83840   0.32170   0.25610   0.01267  Uiso   1.00
H14    H     0.64700   0.32030   0.31630   0.01267  Uiso   1.00
H15    H     0.95770   0.20630   0.37440   0.01267  Uiso   1.00
H16    H     0.14630   0.20650   0.31290   0.01267  Uiso   1.00
H17    H     0.78660   0.39250   0.02330   0.01267  Uiso   1.00
H18    H     0.11560   0.44780   0.15240   0.01267  Uiso   1.00
H19    H     0.25130   0.58510   0.14870   0.01267  Uiso   1.00
H20    H     0.41740   0.51430   0.18000   0.01267  Uiso   1.00
H21    H     0.64300   0.43610   0.08010   0.01267  Uiso   1.00
H22    H     0.64890   0.60940   0.06000   0.01267  Uiso   1.00
H23    H     0.81410   0.54080   0.09260   0.01267  Uiso   1.00
H24    H     0.26380   0.40660   0.09390   0.01267  Uiso   1.00
H25    H     0.22480   0.69200   0.41040   0.01267  Uiso   1.00
H26    H     0.53020   0.58530   0.47970   0.01267  Uiso   1.00
H27    H     0.96990   0.42420   0.47080   0.01267  Uiso   1.00
H28    H     0.23470   0.33950   0.37830   0.01267  Uiso   1.00
H29    H     0.04020   0.50180   0.43300   0.01267  Uiso   1.00
H30    H     0.29780   0.41700   0.33930   0.01267  Uiso   1.00
H31    H     0.43580   0.51890   0.42970   0.01267  Uiso   1.00
H32    H     0.13450   0.62670   0.36000   0.01267  Uiso   1.00
H33    H     0.88290   0.72080   0.35060   0.01267  Uiso   1.00
H34    H     0.48470   0.79200   0.41750   0.01267  Uiso   1.00
H35    H     0.70660   0.72310   0.28490   0.01267  Uiso   1.00
H36    H     0.31060   0.79820   0.35120   0.01267  Uiso   1.00
H37    H     0.66160   0.82170   0.24390   0.01267  Uiso   1.00
H38    H     0.85300   0.82030   0.18370   0.01267  Uiso   1.00
H39    H     0.54230   0.70630   0.12560   0.01267  Uiso   1.00
H40    H     0.35370   0.70650   0.18710   0.01267  Uiso   1.00
H41    H     0.71340   0.89250   0.47670   0.01267  Uiso   1.00
H42    H     0.38440   0.94780   0.34760   0.01267  Uiso   1.00
H43    H     0.24870   0.08510   0.35130   0.01267  Uiso   1.00
H44    H     0.08260   0.01430   0.32000   0.01267  Uiso   1.00
H45    H     0.85700   0.93610   0.41990   0.01267  Uiso   1.00
H46    H     0.85110   0.10940   0.44000   0.01267  Uiso   1.00
H47    H     0.68590   0.04080   0.40740   0.01267  Uiso   1.00
H48    H     0.23620   0.90660   0.40610   0.01267  Uiso   1.00
H49    H     0.72480   0.80800   0.91040   0.01267  Uiso   1.00
H50    H     0.03020   0.91470   0.97970   0.01267  Uiso   1.00
H51    H     0.46990   0.07580   0.97080   0.01267  Uiso   1.00
H52    H     0.73470   0.16050   0.87830   0.01267  Uiso   1.00
H53    H     0.54020   0.99820   0.93300   0.01267  Uiso   1.00
H54    H     0.79780   0.08300   0.83930   0.01267  Uiso   1.00
H55    H     0.93580   0.98110   0.92970   0.01267  Uiso   1.00
H56    H     0.63450   0.87330   0.86000   0.01267  Uiso   1.00
H57    H     0.38290   0.77920   0.85060   0.01267  Uiso   1.00
H58    H     0.98470   0.70800   0.91750   0.01267  Uiso   1.00
H59    H     0.20660   0.77690   0.78490   0.01267  Uiso   1.00
H60    H     0.81060   0.70180   0.85120   0.01267  Uiso   1.00
H61    H     0.16160   0.67830   0.74390   0.01267  Uiso   1.00
H62    H     0.35300   0.67970   0.68370   0.01267  Uiso   1.00
H63    H     0.04230   0.79370   0.62560   0.01267  Uiso   1.00
H64    H     0.85370   0.79350   0.68710   0.01267  Uiso   1.00
H65    H     0.21340   0.60750   0.97670   0.01267  Uiso   1.00
H66    H     0.88440   0.55220   0.84760   0.01267  Uiso   1.00
H67    H     0.74870   0.41490   0.85130   0.01267  Uiso   1.00
H68    H     0.58260   0.48570   0.82000   0.01267  Uiso   1.00
H69    H     0.35700   0.56390   0.91990   0.01267  Uiso   1.00
H70    H     0.35110   0.39060   0.94000   0.01267  Uiso   1.00
H71    H     0.18590   0.45920   0.90740   0.01267  Uiso   1.00
H72    H     0.73620   0.59340   0.90610   0.01267  Uiso   1.00
H73    H     0.77520   0.30800   0.58960   0.01267  Uiso   1.00
H74    H     0.46980   0.41470   0.52030   0.01267  Uiso   1.00
H75    H     0.03010   0.57580   0.52920   0.01267  Uiso   1.00
H76    H     0.76530   0.66050   0.62170   0.01267  Uiso   1.00
H77    H     0.95980   0.49820   0.56700   0.01267  Uiso   1.00
H78    H     0.70220   0.58300   0.66070   0.01267  Uiso   1.00
H79    H     0.56420   0.48110   0.57030   0.01267  Uiso   1.00
H80    H     0.86550   0.37330   0.64000   0.01267  Uiso   1.00
H81    H     0.11710   0.27920   0.64940   0.01267  Uiso   1.00
H82    H     0.51530   0.20800   0.58250   0.01267  Uiso   1.00
H83    H     0.29340   0.27690   0.71510   0.01267  Uiso   1.00
H84    H     0.68940   0.20180   0.64880   0.01267  Uiso   1.00
H85    H     0.33840   0.17830   0.75610   0.01267  Uiso   1.00
H86    H     0.14700   0.17970   0.81630   0.01267  Uiso   1.00
H87    H     0.45770   0.29370   0.87440   0.01267  Uiso   1.00
H88    H     0.64630   0.29350   0.81290   0.01267  Uiso   1.00
H89    H     0.28660   0.10750   0.52330   0.01267  Uiso   1.00
H90    H     0.61560   0.05220   0.65240   0.01267  Uiso   1.00
H91    H     0.75130   0.91490   0.64870   0.01267  Uiso   1.00
H92    H     0.91740   0.98570   0.68000   0.01267  Uiso   1.00
H93    H     0.14300   0.06390   0.58010   0.01267  Uiso   1.00
H94    H     0.14890   0.89060   0.56000   0.01267  Uiso   1.00
H95    H     0.31410   0.95920   0.59260   0.01267  Uiso   1.00
H96    H     0.76380   0.09340   0.59390   0.01267  Uiso   1.00
C1     C     0.23380   0.15720   0.08540   0.01267  Uiso   1.00
C2     C     0.05230   0.09330   0.04407   0.01267  Uiso   1.00
C3     C     0.11770   0.14490   0.04905   0.01267  Uiso   1.00
C4     C     0.06100   0.18540   0.01433   0.01267  Uiso   1.00
C5     C     0.44850   0.82430   0.04649   0.01267  Uiso   1.00
C6     C     0.40520   0.87414   0.07160   0.01267  Uiso   1.00
C7     C     0.46290   0.92270   0.05545   0.01267  Uiso   1.00
C8     C     0.30570   0.87210   0.11087   0.01267  Uiso   1.00
C9     C     0.42090   0.96910   0.07820   0.01267  Uiso   1.00
C10    C     0.26620   0.91870   0.13400   0.01267  Uiso   1.00
C11    C     0.32130   0.96760   0.11766   0.01267  Uiso   1.00
C12    C     0.29260   0.02090   0.14276   0.01267  Uiso   1.00
C13    C     0.47770   0.03370   0.16766   0.01267  Uiso   1.00
C14    C     0.14260   0.01640   0.17859   0.01267  Uiso   1.00
C15    C     0.23260   0.06570   0.11029   0.01267  Uiso   1.00
C16    C     0.10830   0.05350   0.07406   0.01267  Uiso   1.00
C17    C     0.28820   0.11780   0.11536   0.01267  Uiso   1.00
C18    C     0.79450   0.25780   0.10924   0.01267  Uiso   1.00
C19    C     0.73260   0.23660   0.14930   0.01267  Uiso   1.00
C20    C     0.24210   0.31580   0.23841   0.01267  Uiso   1.00
C21    C     0.25790   0.21580   0.23314   0.01267  Uiso   1.00
C22    C     0.96850   0.27940   0.10947   0.01267  Uiso   1.00
C23    C     0.12690   0.26391   0.23420   0.01267  Uiso   1.00
C24    C     0.00890   0.26247   0.27634   0.01267  Uiso   1.00
C25    C     0.83720   0.23820   0.18880   0.01267  Uiso   1.00
C26    C     0.01030   0.26251   0.18947   0.01267  Uiso   1.00
C27    C     0.67230   0.25943   0.06779   0.01267  Uiso   1.00
C28    C     0.07400   0.28250   0.14919   0.01267  Uiso   1.00
C29    C     0.65760   0.25824   0.38997   0.01267  Uiso   1.00
C30    C     0.78150   0.26253   0.35171   0.01267  Uiso   1.00
C31    C     0.86090   0.29740   0.27951   0.01267  Uiso   1.00
C32    C     0.74670   0.29730   0.31586   0.01267  Uiso   1.00
C33    C     0.93170   0.22918   0.35020   0.01267  Uiso   1.00
C34    C     0.04530   0.22920   0.31300   0.01267  Uiso   1.00
C35    C     0.13480   0.36000   0.01910   0.01267  Uiso   1.00
C36    C     0.85330   0.40370   0.04896   0.01267  Uiso   1.00
C37    C     0.43140   0.60373   0.10010   0.01267  Uiso   1.00
C38    C     0.04980   0.43726   0.12633   0.01267  Uiso   1.00
C39    C     0.75070   0.47386   0.15936   0.01267  Uiso   1.00
C40    C     0.63110   0.51899   0.13894   0.01267  Uiso   1.00
C41    C     0.86230   0.44693   0.12210   0.01267  Uiso   1.00
C42    C     0.36330   0.57560   0.13684   0.01267  Uiso   1.00
C43    C     0.46380   0.53320   0.15575   0.01267  Uiso   1.00
C44    C     0.04210   0.39410   0.05308   0.01267  Uiso   1.00
C45    C     0.87380   0.49980   0.19678   0.01267  Uiso   1.00
C46    C     0.32460   0.64902   0.08077   0.01267  Uiso   1.00
C47    C     0.76840   0.42970   0.08308   0.01267  Uiso   1.00
C48    C     0.63810   0.42980   0.18204   0.01267  Uiso   1.00
C49    C     0.60110   0.59040   0.08397   0.01267  Uiso   1.00
C50    C     0.69920   0.54900   0.10340   0.01267  Uiso   1.00
C51    C     0.13770   0.41180   0.09147   0.01267  Uiso   1.00
C52    C     0.26620   0.65720   0.41460   0.01267  Uiso   1.00
C53    C     0.44770   0.59330   0.45593   0.01267  Uiso   1.00
C54    C     0.38230   0.64490   0.45095   0.01267  Uiso   1.00
C55    C     0.43900   0.68540   0.48567   0.01267  Uiso   1.00
C56    C     0.05150   0.32430   0.45351   0.01267  Uiso   1.00
C57    C     0.09480   0.37414   0.42840   0.01267  Uiso   1.00
C58    C     0.03710   0.42270   0.44455   0.01267  Uiso   1.00
C59    C     0.19430   0.37210   0.38913   0.01267  Uiso   1.00
C60    C     0.07910   0.46910   0.42180   0.01267  Uiso   1.00
C61    C     0.23380   0.41870   0.36600   0.01267  Uiso   1.00
C62    C     0.17870   0.46760   0.38234   0.01267  Uiso   1.00
C63    C     0.20740   0.52090   0.35724   0.01267  Uiso   1.00
C64    C     0.02230   0.53370   0.33234   0.01267  Uiso   1.00
C65    C     0.35740   0.51640   0.32141   0.01267  Uiso   1.00
C66    C     0.26740   0.56570   0.38971   0.01267  Uiso   1.00
C67    C     0.39170   0.55350   0.42594   0.01267  Uiso   1.00
C68    C     0.21180   0.61780   0.38464   0.01267  Uiso   1.00
C69    C     0.70550   0.75780   0.39076   0.01267  Uiso   1.00
C70    C     0.76740   0.73660   0.35070   0.01267  Uiso   1.00
C71    C     0.25790   0.81580   0.26159   0.01267  Uiso   1.00
C72    C     0.24210   0.71580   0.26686   0.01267  Uiso   1.00
C73    C     0.53150   0.77940   0.39053   0.01267  Uiso   1.00
C74    C     0.37310   0.76391   0.26580   0.01267  Uiso   1.00
C75    C     0.49110   0.76247   0.22366   0.01267  Uiso   1.00
C76    C     0.66280   0.73820   0.31120   0.01267  Uiso   1.00
C77    C     0.48970   0.76251   0.31053   0.01267  Uiso   1.00
C78    C     0.82770   0.75943   0.43221   0.01267  Uiso   1.00
C79    C     0.42600   0.78250   0.35081   0.01267  Uiso   1.00
C80    C     0.84240   0.75824   0.11003   0.01267  Uiso   1.00
C81    C     0.71850   0.76253   0.14829   0.01267  Uiso   1.00
C82    C     0.63910   0.79740   0.22049   0.01267  Uiso   1.00
C83    C     0.75330   0.79730   0.18414   0.01267  Uiso   1.00
C84    C     0.56830   0.72918   0.14980   0.01267  Uiso   1.00
C85    C     0.45470   0.72920   0.18700   0.01267  Uiso   1.00
C86    C     0.36520   0.86000   0.48090   0.01267  Uiso   1.00
C87    C     0.64670   0.90370   0.45104   0.01267  Uiso   1.00
C88    C     0.06860   0.10373   0.39990   0.01267  Uiso   1.00
C89    C     0.45020   0.93726   0.37367   0.01267  Uiso   1.00
C90    C     0.74930   0.97386   0.34064   0.01267  Uiso   1.00
C91    C     0.86890   0.01899   0.36106   0.01267  Uiso   1.00
C92    C     0.63770   0.94693   0.37790   0.01267  Uiso   1.00
C93    C     0.13670   0.07560   0.36316   0.01267  Uiso   1.00
C94    C     0.03620   0.03320   0.34425   0.01267  Uiso   1.00
C95    C     0.45790   0.89410   0.44692   0.01267  Uiso   1.00
C96    C     0.62620   0.99980   0.30322   0.01267  Uiso   1.00
C97    C     0.17540   0.14902   0.41923   0.01267  Uiso   1.00
C98    C     0.73160   0.92970   0.41692   0.01267  Uiso   1.00
C99    C     0.86190   0.92980   0.31796   0.01267  Uiso   1.00
C100   C     0.89890   0.09040   0.41603   0.01267  Uiso   1.00
C101   C     0.80080   0.04900   0.39660   0.01267  Uiso   1.00
C102   C     0.36230   0.91180   0.40853   0.01267  Uiso   1.00
C103   C     0.76620   0.84280   0.91460   0.01267  Uiso   1.00
C104   C     0.94770   0.90670   0.95593   0.01267  Uiso   1.00
C105   C     0.88230   0.85510   0.95095   0.01267  Uiso   1.00
C106   C     0.93900   0.81460   0.98567   0.01267  Uiso   1.00
C107   C     0.55150   0.17570   0.95351   0.01267  Uiso   1.00
C108   C     0.59480   0.12586   0.92840   0.01267  Uiso   1.00
C109   C     0.53710   0.07730   0.94455   0.01267  Uiso   1.00
C110   C     0.69430   0.12790   0.88913   0.01267  Uiso   1.00
C111   C     0.57910   0.03090   0.92180   0.01267  Uiso   1.00
C112   C     0.73380   0.08130   0.86600   0.01267  Uiso   1.00
C113   C     0.67870   0.03240   0.88234   0.01267  Uiso   1.00
C114   C     0.70740   0.97910   0.85724   0.01267  Uiso   1.00
C115   C     0.52230   0.96630   0.83234   0.01267  Uiso   1.00
C116   C     0.85740   0.98360   0.82141   0.01267  Uiso   1.00
C117   C     0.76740   0.93430   0.88971   0.01267  Uiso   1.00
C118   C     0.89170   0.94650   0.92594   0.01267  Uiso   1.00
C119   C     0.71180   0.88220   0.88464   0.01267  Uiso   1.00
C120   C     0.20550   0.74220   0.89076   0.01267  Uiso   1.00
C121   C     0.26740   0.76340   0.85070   0.01267  Uiso   1.00
C122   C     0.75790   0.68420   0.76159   0.01267  Uiso   1.00
C123   C     0.74210   0.78420   0.76686   0.01267  Uiso   1.00
C124   C     0.03150   0.72060   0.89053   0.01267  Uiso   1.00
C125   C     0.87310   0.73609   0.76580   0.01267  Uiso   1.00
C126   C     0.99110   0.73753   0.72366   0.01267  Uiso   1.00
C127   C     0.16280   0.76180   0.81120   0.01267  Uiso   1.00
C128   C     0.98970   0.73749   0.81053   0.01267  Uiso   1.00
C129   C     0.32770   0.74057   0.93221   0.01267  Uiso   1.00
C130   C     0.92600   0.71750   0.85081   0.01267  Uiso   1.00
C131   C     0.34240   0.74176   0.61003   0.01267  Uiso   1.00
C132   C     0.21850   0.73747   0.64829   0.01267  Uiso   1.00
C133   C     0.13910   0.70260   0.72049   0.01267  Uiso   1.00
C134   C     0.25330   0.70270   0.68414   0.01267  Uiso   1.00
C135   C     0.06830   0.77082   0.64980   0.01267  Uiso   1.00
C136   C     0.95470   0.77080   0.68700   0.01267  Uiso   1.00
C137   C     0.86520   0.64000   0.98090   0.01267  Uiso   1.00
C138   C     0.14670   0.59630   0.95104   0.01267  Uiso   1.00
C139   C     0.56860   0.39627   0.89990   0.01267  Uiso   1.00
C140   C     0.95020   0.56274   0.87367   0.01267  Uiso   1.00
C141   C     0.24930   0.52614   0.84064   0.01267  Uiso   1.00
C142   C     0.36890   0.48101   0.86106   0.01267  Uiso   1.00
C143   C     0.13770   0.55307   0.87790   0.01267  Uiso   1.00
C144   C     0.63670   0.42440   0.86316   0.01267  Uiso   1.00
C145   C     0.53620   0.46680   0.84425   0.01267  Uiso   1.00
C146   C     0.95790   0.60590   0.94692   0.01267  Uiso   1.00
C147   C     0.12620   0.50020   0.80322   0.01267  Uiso   1.00
C148   C     0.67540   0.35098   0.91923   0.01267  Uiso   1.00
C149   C     0.23160   0.57030   0.91692   0.01267  Uiso   1.00
C150   C     0.36190   0.57020   0.81796   0.01267  Uiso   1.00
C151   C     0.39890   0.40960   0.91603   0.01267  Uiso   1.00
C152   C     0.30080   0.45100   0.89660   0.01267  Uiso   1.00
C153   C     0.86230   0.58820   0.90853   0.01267  Uiso   1.00
C154   C     0.73380   0.34280   0.58540   0.01267  Uiso   1.00
C155   C     0.55230   0.40670   0.54407   0.01267  Uiso   1.00
C156   C     0.61770   0.35510   0.54905   0.01267  Uiso   1.00
C157   C     0.56100   0.31460   0.51433   0.01267  Uiso   1.00
C158   C     0.94850   0.67570   0.54649   0.01267  Uiso   1.00
C159   C     0.90520   0.62586   0.57160   0.01267  Uiso   1.00
C160   C     0.96290   0.57730   0.55545   0.01267  Uiso   1.00
C161   C     0.80570   0.62790   0.61087   0.01267  Uiso   1.00
C162   C     0.92090   0.53090   0.57820   0.01267  Uiso   1.00
C163   C     0.76620   0.58130   0.63400   0.01267  Uiso   1.00
C164   C     0.82130   0.53240   0.61766   0.01267  Uiso   1.00
C165   C     0.79260   0.47910   0.64276   0.01267  Uiso   1.00
C166   C     0.97770   0.46630   0.66766   0.01267  Uiso   1.00
C167   C     0.64260   0.48360   0.67859   0.01267  Uiso   1.00
C168   C     0.73260   0.43430   0.61029   0.01267  Uiso   1.00
C169   C     0.60830   0.44650   0.57406   0.01267  Uiso   1.00
C170   C     0.78820   0.38220   0.61536   0.01267  Uiso   1.00
C171   C     0.29450   0.24220   0.60924   0.01267  Uiso   1.00
C172   C     0.23260   0.26340   0.64930   0.01267  Uiso   1.00
C173   C     0.74210   0.18420   0.73841   0.01267  Uiso   1.00
C174   C     0.75790   0.28420   0.73314   0.01267  Uiso   1.00
C175   C     0.46850   0.22060   0.60947   0.01267  Uiso   1.00
C176   C     0.62690   0.23609   0.73420   0.01267  Uiso   1.00
C177   C     0.50890   0.23753   0.77634   0.01267  Uiso   1.00
C178   C     0.33720   0.26180   0.68880   0.01267  Uiso   1.00
C179   C     0.51030   0.23749   0.68947   0.01267  Uiso   1.00
C180   C     0.17230   0.24057   0.56779   0.01267  Uiso   1.00
C181   C     0.57400   0.21750   0.64919   0.01267  Uiso   1.00
C182   C     0.15760   0.24176   0.88997   0.01267  Uiso   1.00
C183   C     0.28150   0.23747   0.85171   0.01267  Uiso   1.00
C184   C     0.36090   0.20260   0.77951   0.01267  Uiso   1.00
C185   C     0.24670   0.20270   0.81586   0.01267  Uiso   1.00
C186   C     0.43170   0.27082   0.85020   0.01267  Uiso   1.00
C187   C     0.54530   0.27080   0.81300   0.01267  Uiso   1.00
C188   C     0.63480   0.14000   0.51910   0.01267  Uiso   1.00
C189   C     0.35330   0.09630   0.54896   0.01267  Uiso   1.00
C190   C     0.93140   0.89627   0.60010   0.01267  Uiso   1.00
C191   C     0.54980   0.06274   0.62633   0.01267  Uiso   1.00
C192   C     0.25070   0.02614   0.65936   0.01267  Uiso   1.00
C193   C     0.13110   0.98101   0.63894   0.01267  Uiso   1.00
C194   C     0.36230   0.05307   0.62210   0.01267  Uiso   1.00
C195   C     0.86330   0.92440   0.63684   0.01267  Uiso   1.00
C196   C     0.96380   0.96680   0.65575   0.01267  Uiso   1.00
C197   C     0.54210   0.10590   0.55308   0.01267  Uiso   1.00
C198   C     0.37380   0.00020   0.69678   0.01267  Uiso   1.00
C199   C     0.82460   0.85098   0.58077   0.01267  Uiso   1.00
C200   C     0.26840   0.07030   0.58308   0.01267  Uiso   1.00
C201   C     0.13810   0.07020   0.68204   0.01267  Uiso   1.00
C202   C     0.10110   0.90960   0.58397   0.01267  Uiso   1.00
C203   C     0.19920   0.95100   0.60340   0.01267  Uiso   1.00
C204   C     0.63770   0.08820   0.59147   0.01267  Uiso   1.00
O1     O     0.13540   0.23293   0.01691   0.01267  Uiso   1.00
O2     O     0.94280   0.17563   0.98426   0.01267  Uiso   1.00
O3     O     0.55520   0.82568   0.01440   0.01267  Uiso   1.00
O4     O     0.37940   0.77957   0.05907   0.01267  Uiso   1.00
O5     O     0.73670   0.26660   0.02830   0.01267  Uiso   1.00
O6     O     0.50370   0.25501   0.07196   0.01267  Uiso   1.00
O7     O     0.71750   0.23508   0.42707   0.01267  Uiso   1.00
O8     O     0.49760   0.27495   0.38749   0.01267  Uiso   1.00
O9     O     0.03950   0.34211   0.98625   0.01267  Uiso   1.00
O10    O     0.30210   0.34941   0.02510   0.01267  Uiso   1.00
O11    O     0.38230   0.67102   0.04379   0.01267  Uiso   1.00
O12    O     0.18400   0.66595   0.09838   0.01267  Uiso   1.00
O13    O     0.36460   0.73293   0.48309   0.01267  Uiso   1.00
O14    O     0.55720   0.67563   0.51574   0.01267  Uiso   1.00
O15    O     0.94480   0.32568   0.48560   0.01267  Uiso   1.00
O16    O     0.12060   0.27957   0.44093   0.01267  Uiso   1.00
O17    O     0.76330   0.76660   0.47170   0.01267  Uiso   1.00
O18    O     0.99630   0.75501   0.42804   0.01267  Uiso   1.00
O19    O     0.78250   0.73508   0.07293   0.01267  Uiso   1.00
O20    O     0.00240   0.77495   0.11251   0.01267  Uiso   1.00
O21    O     0.46050   0.84211   0.51375   0.01267  Uiso   1.00
O22    O     0.19790   0.84941   0.47490   0.01267  Uiso   1.00
O23    O     0.11770   0.17102   0.45621   0.01267  Uiso   1.00
O24    O     0.31600   0.16595   0.40162   0.01267  Uiso   1.00
O25    O     0.86460   0.76707   0.98309   0.01267  Uiso   1.00
O26    O     0.05720   0.82437   0.01574   0.01267  Uiso   1.00
O27    O     0.44480   0.17432   0.98560   0.01267  Uiso   1.00
O28    O     0.62060   0.22043   0.94093   0.01267  Uiso   1.00
O29    O     0.26330   0.73340   0.97170   0.01267  Uiso   1.00
O30    O     0.49630   0.74499   0.92804   0.01267  Uiso   1.00
O31    O     0.28250   0.76492   0.57293   0.01267  Uiso   1.00
O32    O     0.50240   0.72505   0.61251   0.01267  Uiso   1.00
O33    O     0.96050   0.65789   0.01375   0.01267  Uiso   1.00
O34    O     0.69790   0.65059   0.97490   0.01267  Uiso   1.00
O35    O     0.61770   0.32898   0.95621   0.01267  Uiso   1.00
O36    O     0.81600   0.33405   0.90162   0.01267  Uiso   1.00
O37    O     0.63540   0.26707   0.51691   0.01267  Uiso   1.00
O38    O     0.44280   0.32437   0.48426   0.01267  Uiso   1.00
O39    O     0.05520   0.67432   0.51440   0.01267  Uiso   1.00
O40    O     0.87940   0.72043   0.55907   0.01267  Uiso   1.00
O41    O     0.23670   0.23340   0.52830   0.01267  Uiso   1.00
O42    O     0.00370   0.24499   0.57196   0.01267  Uiso   1.00
O43    O     0.21750   0.26492   0.92707   0.01267  Uiso   1.00
O44    O     0.99760   0.22505   0.88749   0.01267  Uiso   1.00
O45    O     0.53950   0.15789   0.48625   0.01267  Uiso   1.00
O46    O     0.80210   0.15059   0.52510   0.01267  Uiso   1.00
O47    O     0.88230   0.82898   0.54379   0.01267  Uiso   1.00
O48    O     0.68400   0.83405   0.59838   0.01267  Uiso   1.00
F1     F     0.54880   0.99013   0.18800   0.01267  Uiso   1.00
F2     F     0.46390   0.07068   0.20022   0.01267  Uiso   1.00
F3     F     0.98900   0.99524   0.16055   0.01267  Uiso   1.00
F4     F     0.19500   0.98615   0.21455   0.01267  Uiso   1.00
F5     F     0.09930   0.06415   0.19536   0.01267  Uiso   1.00
F6     F     0.60060   0.05104   0.13882   0.01267  Uiso   1.00
F7     F     0.14420   0.35857   0.22698   0.01267  Uiso   1.00
F8     F     0.38940   0.31523   0.21166   0.01267  Uiso   1.00
F9     F     0.16630   0.16982   0.23675   0.01267  Uiso   1.00
F10    F     0.34390   0.21292   0.19359   0.01267  Uiso   1.00
F11    F     0.30960   0.32317   0.28042   0.01267  Uiso   1.00
F12    F     0.38940   0.21697   0.26548   0.01267  Uiso   1.00
F13    F     0.99460   0.53398   0.17852   0.01267  Uiso   1.00
F14    F     0.97120   0.46455   0.22119   0.01267  Uiso   1.00
F15    F     0.77680   0.52888   0.22560   0.01267  Uiso   1.00
F16    F     0.56710   0.44402   0.22103   0.01267  Uiso   1.00
F17    F     0.49840   0.41379   0.15481   0.01267  Uiso   1.00
F18    F     0.74100   0.38614   0.19040   0.01267  Uiso   1.00
F19    F     0.95120   0.49013   0.31200   0.01267  Uiso   1.00
F20    F     0.03610   0.57068   0.29978   0.01267  Uiso   1.00
F21    F     0.51100   0.49524   0.33945   0.01267  Uiso   1.00
F22    F     0.30500   0.48615   0.28545   0.01267  Uiso   1.00
F23    F     0.40070   0.56415   0.30464   0.01267  Uiso   1.00
F24    F     0.89940   0.55104   0.36118   0.01267  Uiso   1.00
F25    F     0.35580   0.85857   0.27302   0.01267  Uiso   1.00
F26    F     0.11060   0.81523   0.28834   0.01267  Uiso   1.00
F27    F     0.33370   0.66982   0.26325   0.01267  Uiso   1.00
F28    F     0.15610   0.71292   0.30641   0.01267  Uiso   1.00
F29    F     0.19040   0.82317   0.21958   0.01267  Uiso   1.00
F30    F     0.11060   0.71697   0.23452   0.01267  Uiso   1.00
F31    F     0.50540   0.03398   0.32148   0.01267  Uiso   1.00
F32    F     0.52880   0.96455   0.27881   0.01267  Uiso   1.00
F33    F     0.72320   0.02888   0.27440   0.01267  Uiso   1.00
F34    F     0.93290   0.94402   0.27897   0.01267  Uiso   1.00
F35    F     0.00160   0.91379   0.34519   0.01267  Uiso   1.00
F36    F     0.75900   0.88614   0.30960   0.01267  Uiso   1.00
F37    F     0.45120   0.00987   0.81200   0.01267  Uiso   1.00
F38    F     0.53610   0.92932   0.79978   0.01267  Uiso   1.00
F39    F     0.01100   0.00476   0.83945   0.01267  Uiso   1.00
F40    F     0.80500   0.01385   0.78545   0.01267  Uiso   1.00
F41    F     0.90070   0.93585   0.80464   0.01267  Uiso   1.00
F42    F     0.39940   0.94896   0.86118   0.01267  Uiso   1.00
F43    F     0.85580   0.64143   0.77302   0.01267  Uiso   1.00
F44    F     0.61060   0.68477   0.78834   0.01267  Uiso   1.00
F45    F     0.83370   0.83018   0.76325   0.01267  Uiso   1.00
F46    F     0.65610   0.78708   0.80641   0.01267  Uiso   1.00
F47    F     0.69040   0.67683   0.71958   0.01267  Uiso   1.00
F48    F     0.61060   0.78303   0.73452   0.01267  Uiso   1.00
F49    F     0.00540   0.46602   0.82148   0.01267  Uiso   1.00
F50    F     0.02880   0.53545   0.77881   0.01267  Uiso   1.00
F51    F     0.22320   0.47112   0.77440   0.01267  Uiso   1.00
F52    F     0.43290   0.55598   0.77897   0.01267  Uiso   1.00
F53    F     0.50160   0.58621   0.84519   0.01267  Uiso   1.00
F54    F     0.25900   0.61386   0.80960   0.01267  Uiso   1.00
F55    F     0.04880   0.50987   0.68800   0.01267  Uiso   1.00
F56    F     0.96390   0.42932   0.70022   0.01267  Uiso   1.00
F57    F     0.48900   0.50476   0.66055   0.01267  Uiso   1.00
F58    F     0.69500   0.51385   0.71455   0.01267  Uiso   1.00
F59    F     0.59930   0.43585   0.69536   0.01267  Uiso   1.00
F60    F     0.10060   0.44896   0.63882   0.01267  Uiso   1.00
F61    F     0.64420   0.14143   0.72698   0.01267  Uiso   1.00
F62    F     0.88940   0.18477   0.71166   0.01267  Uiso   1.00
F63    F     0.66630   0.33018   0.73675   0.01267  Uiso   1.00
F64    F     0.84390   0.28708   0.69359   0.01267  Uiso   1.00
F65    F     0.80960   0.17683   0.78042   0.01267  Uiso   1.00
F66    F     0.88940   0.28303   0.76548   0.01267  Uiso   1.00
F67    F     0.49460   0.96602   0.67852   0.01267  Uiso   1.00
F68    F     0.47120   0.03545   0.72119   0.01267  Uiso   1.00
F69    F     0.27680   0.97112   0.72560   0.01267  Uiso   1.00
F70    F     0.06710   0.05598   0.72103   0.01267  Uiso   1.00
F71    F     0.99840   0.08621   0.65481   0.01267  Uiso   1.00
F72    F     0.24100   0.11386   0.69040   0.01267  Uiso   1.00
