data_QOMFAA_clean
_audit_creation_date              2014-07-02
_audit_creation_method            'Materials Studio'
_symmetry_space_group_name_H-M    'P1'
_symmetry_Int_Tables_number       1
_symmetry_cell_setting            triclinic
loop_
_symmetry_equiv_pos_as_xyz
  x,y,z
_cell_length_a                    8.7651
_cell_length_b                    8.7941
_cell_length_c                    13.6911
_cell_angle_alpha                 73.5670
_cell_angle_beta                  73.0480
_cell_angle_gamma                 81.4720
loop_
_atom_site_label
_atom_site_type_symbol
_atom_site_fract_x
_atom_site_fract_y
_atom_site_fract_z
_atom_site_U_iso_or_equiv
_atom_site_adp_type
_atom_site_occupancy
Zn1    Zn    0.50394   0.15125   0.14478   0.01267  Uiso   1.00
Zn2    Zn    0.37594   0.10068   0.37999   0.01267  Uiso   1.00
H1     H     0.88500   0.26060   0.62020   0.01267  Uiso   1.00
H2     H     0.07230   0.24320   0.46460   0.01267  Uiso   1.00
H3     H     0.56810   0.96350   0.98250   0.01267  Uiso   1.00
H4     H     0.76510   0.93200   0.83190   0.01267  Uiso   1.00
H5     H     0.96180   0.31730   0.83520   0.01267  Uiso   1.00
H6     H     0.75840   0.34070   0.98280   0.01267  Uiso   1.00
H7     H     0.10020   0.87670   0.87210   0.01267  Uiso   1.00
H8     H     0.30030   0.71700   0.78920   0.01267  Uiso   1.00
H9     H     0.50460   0.97080   0.72870   0.01267  Uiso   1.00
H10    H     0.56650   0.79550   0.71360   0.01267  Uiso   1.00
H11    H     0.41090   0.81870   0.59500   0.01267  Uiso   1.00
H12    H     0.50490   0.97690   0.55460   0.01267  Uiso   1.00
H13    H     0.25350   0.92270   0.00040   0.01267  Uiso   1.00
H14    H     0.21620   0.10920   0.99160   0.01267  Uiso   1.00
H15    H     0.07770   0.00320   0.99910   0.01267  Uiso   1.00
H16    H     0.46180   0.54660   0.86300   0.01267  Uiso   1.00
H17    H     0.59260   0.63490   0.88300   0.01267  Uiso   1.00
H18    H     0.45950   0.54350   0.98090   0.01267  Uiso   1.00
H19    H     0.90270   0.09810   0.36910   0.01267  Uiso   1.00
H20    H     0.98600   0.17190   0.14980   0.01267  Uiso   1.00
H21    H     0.47610   0.66450   0.15590   0.01267  Uiso   1.00
H22    H     0.40270   0.58760   0.37410   0.01267  Uiso   1.00
C1     C     0.26140   0.01910   0.61930   0.01267  Uiso   1.00
C2     C     0.15180   0.01620   0.71820   0.01267  Uiso   1.00
C3     C     0.00840   0.11180   0.71680   0.01267  Uiso   1.00
C4     C     0.98130   0.19540   0.62210   0.01267  Uiso   1.00
C5     C     0.09340   0.18510   0.52980   0.01267  Uiso   1.00
C6     C     0.64920   0.03650   0.95200   0.01267  Uiso   1.00
C7     C     0.76550   0.01720   0.86170   0.01267  Uiso   1.00
C8     C     0.88250   0.12580   0.81610   0.01267  Uiso   1.00
C9     C     0.88080   0.24410   0.86340   0.01267  Uiso   1.00
C10    C     0.76090   0.25580   0.95200   0.01267  Uiso   1.00
C11    C     0.19520   0.92950   0.81990   0.01267  Uiso   1.00
C12    C     0.33520   0.80770   0.80600   0.01267  Uiso   1.00
C13    C     0.47340   0.87470   0.71730   0.01267  Uiso   1.00
C14    C     0.42090   0.91800   0.61250   0.01267  Uiso   1.00
C15    C     0.19220   0.01880   0.97130   0.01267  Uiso   1.00
C16    C     0.48100   0.60760   0.90760   0.01267  Uiso   1.00
C17    C     0.71470   0.11430   0.29330   0.01267  Uiso   1.00
C18    C     0.88450   0.11810   0.30130   0.01267  Uiso   1.00
C19    C     0.00510   0.14800   0.21760   0.01267  Uiso   1.00
C20    C     0.16850   0.14590   0.22480   0.01267  Uiso   1.00
C21    C     0.43620   0.43010   0.23360   0.01267  Uiso   1.00
C22    C     0.44940   0.59520   0.22470   0.01267  Uiso   1.00
C23    C     0.42720   0.65560   0.30480   0.01267  Uiso   1.00
C24    C     0.43930   0.83250   0.29070   0.01267  Uiso   1.00
N1     N     0.23080   0.09650   0.52850   0.01267  Uiso   1.00
N2     N     0.64560   0.15100   0.99750   0.01267  Uiso   1.00
O1     O     0.23540   0.05020   0.85790   0.01267  Uiso   1.00
O2     O     0.37720   0.75050   0.90170   0.01267  Uiso   1.00
O3     O     0.60420   0.10550   0.37860   0.01267  Uiso   1.00
O4     O     0.69610   0.11370   0.20720   0.01267  Uiso   1.00
O5     O     0.19100   0.11000   0.31510   0.01267  Uiso   1.00
O6     O     0.27390   0.18040   0.13910   0.01267  Uiso   1.00
O7     O     0.37170   0.34100   0.32510   0.01267  Uiso   1.00
O8     O     0.49370   0.38100   0.15080   0.01267  Uiso   1.00
O9     O     0.41580   0.87450   0.37450   0.01267  Uiso   1.00
O10    O     0.47080   0.91630   0.20030   0.01267  Uiso   1.00
