data_QOPCII_charged
_audit_creation_date              2014-07-02
_audit_creation_method            'Materials Studio'
_symmetry_space_group_name_H-M    'P1'
_symmetry_Int_Tables_number       1
_symmetry_cell_setting            triclinic
loop_
_symmetry_equiv_pos_as_xyz
  x,y,z
_cell_length_a                    5.6431
_cell_length_b                    10.4832
_cell_length_c                    13.3055
_cell_angle_alpha                 79.3560
_cell_angle_beta                  84.3440
_cell_angle_gamma                 76.3760
loop_
_atom_site_label
_atom_site_type_symbol
_atom_site_fract_x
_atom_site_fract_y
_atom_site_fract_z
_atom_site_U_iso_or_equiv
_atom_site_adp_type
_atom_site_occupancy
Mn1    Mn    0.18527   0.92067   0.59206   0.01267  Uiso   1.00
Mn2    Mn    0.89407   0.38593   0.65980   0.01267  Uiso   1.00
Mn3    Mn    0.81473   0.07933   0.40794   0.01267  Uiso   1.00
Mn4    Mn    0.10593   0.61407   0.34020   0.01267  Uiso   1.00
Mn5    Mn    0.50000  -0.00000   0.00000   0.01267  Uiso   1.00
P1     P     0.00450   0.85511   0.12401   0.01267  Uiso   1.00
P2     P     0.76360   0.77811   0.52332   0.01267  Uiso   1.00
P3     P     0.99550   0.14489   0.87599   0.01267  Uiso   1.00
P4     P     0.23640   0.22189   0.47668   0.01267  Uiso   1.00
H1     H     0.80270   0.00630   0.75370   0.01267  Uiso   1.00
H2     H     0.52060   0.61880   0.67890   0.01267  Uiso   1.00
H3     H     0.93570   0.08050   0.12830   0.01267  Uiso   1.00
H4     H     0.73670   0.75440   0.70410   0.01267  Uiso   1.00
H5     H     0.19730   0.99370   0.24630   0.01267  Uiso   1.00
H6     H     0.47940   0.38120   0.32110   0.01267  Uiso   1.00
H7     H     0.06430   0.91950   0.87170   0.01267  Uiso   1.00
H8     H     0.26330   0.24560   0.29590   0.01267  Uiso   1.00
C1     C     0.90800   0.00750   0.17980   0.01267  Uiso   1.00
C2     C     0.63890   0.03590   0.21360   0.01267  Uiso   1.00
C3     C     0.79950   0.69230   0.65800   0.01267  Uiso   1.00
C4     C     0.06720   0.63210   0.67350   0.01267  Uiso   1.00
C5     C     0.09200   0.99250   0.82020   0.01267  Uiso   1.00
C6     C     0.36110   0.96410   0.78640   0.01267  Uiso   1.00
C7     C     0.20050   0.30770   0.34200   0.01267  Uiso   1.00
C8     C     0.93280   0.36790   0.32650   0.01267  Uiso   1.00
O1     O     0.83650   0.86650   0.03930   0.01267  Uiso   1.00
O2     O     0.73090   0.14820   0.91940   0.01267  Uiso   1.00
O3     O     0.99380   0.73810   0.20710   0.01267  Uiso   1.00
O4     O     0.95300   0.99660   0.73430   0.01267  Uiso   1.00
O5     O     0.41860   0.95820   0.69310   0.01267  Uiso   1.00
O6     O     0.48200   0.05510   0.14940   0.01267  Uiso   1.00
O7     O     0.49220   0.82380   0.50870   0.01267  Uiso   1.00
O8     O     0.88460   0.67470   0.45940   0.01267  Uiso   1.00
O9     O     0.89280   0.89350   0.51240   0.01267  Uiso   1.00
O10    O     0.67370   0.58670   0.67770   0.01267  Uiso   1.00
O11    O     0.14210   0.50970   0.68220   0.01267  Uiso   1.00
O12    O     0.20290   0.71220   0.67780   0.01267  Uiso   1.00
O13    O     0.58630   0.34030   0.61430   0.01267  Uiso   1.00
O14    O     0.16350   0.13350   0.96070   0.01267  Uiso   1.00
O15    O     0.26910   0.85180   0.08060   0.01267  Uiso   1.00
O16    O     0.00620   0.26190   0.79290   0.01267  Uiso   1.00
O17    O     0.04700   0.00340   0.26570   0.01267  Uiso   1.00
O18    O     0.58140   0.04180   0.30690   0.01267  Uiso   1.00
O19    O     0.51800   0.94490   0.85060   0.01267  Uiso   1.00
O20    O     0.50780   0.17620   0.49130   0.01267  Uiso   1.00
O21    O     0.11540   0.32530   0.54060   0.01267  Uiso   1.00
O22    O     0.10720   0.10650   0.48760   0.01267  Uiso   1.00
O23    O     0.32630   0.41330   0.32230   0.01267  Uiso   1.00
O24    O     0.85790   0.49030   0.31780   0.01267  Uiso   1.00
O25    O     0.79710   0.28780   0.32220   0.01267  Uiso   1.00
O26    O     0.41370   0.65970   0.38570   0.01267  Uiso   1.00
H9     H     0.40820   0.30820   0.81560   0.01267  Uiso   1.00
H10    H     0.25600   0.42220   0.85450   0.01267  Uiso   1.00
H11    H     0.39040   0.31220   0.92450   0.01267  Uiso   1.00
H12    H     0.51900   0.40650   0.84470   0.01267  Uiso   1.00
N1     N     0.39900   0.36200   0.86200   0.01267  Uiso   1.00
H13    H     0.59180   0.69180   0.18440   0.01267  Uiso   1.00
H14    H     0.74400   0.57780   0.14550   0.01267  Uiso   1.00
H15    H     0.60960   0.68780   0.07550   0.01267  Uiso   1.00
H16    H     0.48100   0.59350   0.15530   0.01267  Uiso   1.00
N2     N     0.60100   0.63800   0.13800   0.01267  Uiso   1.00
