data_QOSXAY_clean
_audit_creation_date              2014-07-02
_audit_creation_method            'Materials Studio'
_symmetry_space_group_name_H-M    'P1'
_symmetry_Int_Tables_number       1
_symmetry_cell_setting            triclinic
loop_
_symmetry_equiv_pos_as_xyz
  x,y,z
_cell_length_a                    6.0348
_cell_length_b                    14.9157
_cell_length_c                    16.1572
_cell_angle_alpha                 112.5720
_cell_angle_beta                  95.7025
_cell_angle_gamma                 96.4950
loop_
_atom_site_label
_atom_site_type_symbol
_atom_site_fract_x
_atom_site_fract_y
_atom_site_fract_z
_atom_site_U_iso_or_equiv
_atom_site_adp_type
_atom_site_occupancy
Ni1    Ni    0.18180   0.67300   0.22118   0.01267  Uiso   1.00
Ni2    Ni    0.95500   0.75109   0.39003   0.01267  Uiso   1.00
Ni3    Ni    0.52870   0.55370   0.30748   0.01267  Uiso   1.00
Ni4    Ni    0.81820   0.32700   0.77882   0.01267  Uiso   1.00
Ni5    Ni    0.04500   0.24891   0.60997   0.01267  Uiso   1.00
Ni6    Ni    0.47130   0.44630   0.69252   0.01267  Uiso   1.00
P1     P     0.65610   0.64820   0.18030   0.01267  Uiso   1.00
P2     P     0.04150   0.54410   0.34500   0.01267  Uiso   1.00
P3     P     0.49240   0.79940   0.42280   0.01267  Uiso   1.00
P4     P     0.34390   0.35180   0.81970   0.01267  Uiso   1.00
P5     P     0.95850   0.45590   0.65500   0.01267  Uiso   1.00
P6     P     0.50760   0.20060   0.57720   0.01267  Uiso   1.00
C1     C     0.98000   0.47390   0.08010   0.01267  Uiso   1.00
C2     C     0.57500   0.42840   0.40930   0.01267  Uiso   1.00
C3     C     0.10200   0.96210   0.41130   0.01267  Uiso   1.00
C4     C     0.95100   0.93300   0.54770   0.01267  Uiso   1.00
C5     C     0.68700   0.89760   0.40870   0.01267  Uiso   1.00
C6     C     0.79600   0.63070   0.07810   0.01267  Uiso   1.00
C7     C     0.16700   0.59490   0.00710   0.01267  Uiso   1.00
C8     C     0.46600   0.58880   0.50710   0.01267  Uiso   1.00
C9     C     0.18100   0.45850   0.38410   0.01267  Uiso   1.00
C10    C     0.02000   0.52610   0.91990   0.01267  Uiso   1.00
C11    C     0.42500   0.57160   0.59070   0.01267  Uiso   1.00
C12    C     0.89800   0.03790   0.58870   0.01267  Uiso   1.00
C13    C     0.04900   0.06700   0.45230   0.01267  Uiso   1.00
C14    C     0.31300   0.10240   0.59130   0.01267  Uiso   1.00
C15    C     0.20400   0.36930   0.92190   0.01267  Uiso   1.00
C16    C     0.83300   0.40510   0.99290   0.01267  Uiso   1.00
C17    C     0.53400   0.41120   0.49290   0.01267  Uiso   1.00
C18    C     0.81900   0.54150   0.61590   0.01267  Uiso   1.00
N1     N     0.43200   0.50980   0.42540   0.01267  Uiso   1.00
N2     N     0.92700   0.91620   0.44610   0.01267  Uiso   1.00
N3     N     0.00300   0.57460   0.06920   0.01267  Uiso   1.00
N4     N     0.56800   0.49020   0.57460   0.01267  Uiso   1.00
N5     N     0.07300   0.08380   0.55390   0.01267  Uiso   1.00
N6     N     0.99700   0.42540   0.93080   0.01267  Uiso   1.00
O1     O     0.61590   0.70890   0.39810   0.01267  Uiso   1.00
O2     O     0.43710   0.82960   0.51940   0.01267  Uiso   1.00
O3     O     0.80090   0.48610   0.29980   0.01267  Uiso   1.00
O4     O     0.03250   0.63620   0.43160   0.01267  Uiso   1.00
O5     O     0.47210   0.71150   0.18190   0.01267  Uiso   1.00
O6     O     0.55470   0.54460   0.17320   0.01267  Uiso   1.00
O7     O     0.86210   0.70650   0.25230   0.01267  Uiso   1.00
O8     O     0.27070   0.78190   0.35970   0.01267  Uiso   1.00
O9     O     0.18270   0.55760   0.27580   0.01267  Uiso   1.00
O10    O     0.38410   0.29110   0.60190   0.01267  Uiso   1.00
O11    O     0.56290   0.17040   0.48060   0.01267  Uiso   1.00
O12    O     0.19910   0.51390   0.70020   0.01267  Uiso   1.00
O13    O     0.96750   0.36380   0.56840   0.01267  Uiso   1.00
O14    O     0.52790   0.28850   0.81810   0.01267  Uiso   1.00
O15    O     0.44530   0.45540   0.82680   0.01267  Uiso   1.00
O16    O     0.13790   0.29350   0.74770   0.01267  Uiso   1.00
O17    O     0.72930   0.21810   0.64030   0.01267  Uiso   1.00
O18    O     0.81730   0.44240   0.72420   0.01267  Uiso   1.00
