data_QOVDEL_clean
_audit_creation_date              2014-07-02
_audit_creation_method            'Materials Studio'
_symmetry_space_group_name_H-M    'P1'
_symmetry_Int_Tables_number       1
_symmetry_cell_setting            triclinic
loop_
_symmetry_equiv_pos_as_xyz
  x,y,z
_cell_length_a                    6.1654
_cell_length_b                    16.2469
_cell_length_c                    16.2469
_cell_angle_alpha                 61.5756
_cell_angle_beta                  82.7329
_cell_angle_gamma                 97.2671
loop_
_atom_site_label
_atom_site_type_symbol
_atom_site_fract_x
_atom_site_fract_y
_atom_site_fract_z
_atom_site_U_iso_or_equiv
_atom_site_adp_type
_atom_site_occupancy
Ni1    Ni    0.55706   0.24759   0.41893   0.01267  Uiso   1.00
Ni2    Ni    0.97599   0.41893   0.33348   0.01267  Uiso   1.00
Ni3    Ni    0.30947   0.33348   0.24759   0.01267  Uiso   1.00
Ni4    Ni    0.44294   0.75241   0.58107   0.01267  Uiso   1.00
Ni5    Ni    0.02401   0.58107   0.66652   0.01267  Uiso   1.00
Ni6    Ni    0.69053   0.66652   0.75241   0.01267  Uiso   1.00
P1     P     0.81497   0.34597   0.19106   0.01267  Uiso   1.00
P2     P     0.00603   0.19106   0.46297   0.01267  Uiso   1.00
P3     P     0.46900   0.46297   0.34597   0.01267  Uiso   1.00
P4     P     0.18503   0.65403   0.80894   0.01267  Uiso   1.00
P5     P     0.99397   0.80894   0.53703   0.01267  Uiso   1.00
P6     P     0.53100   0.53703   0.65403   0.01267  Uiso   1.00
C1     C     0.39100   0.53020   0.06530   0.01267  Uiso   1.00
C2     C     0.46990   0.39850   0.03440   0.01267  Uiso   1.00
C3     C     0.73700   0.46870   0.10940   0.01267  Uiso   1.00
C4     C     0.45630   0.06530   0.40450   0.01267  Uiso   1.00
C5     C     0.50430   0.03440   0.56710   0.01267  Uiso   1.00
C6     C     0.84640   0.10940   0.42190   0.01267  Uiso   1.00
C7     C     0.86080   0.40450   0.53020   0.01267  Uiso   1.00
C8     C     0.07140   0.56710   0.39850   0.01267  Uiso   1.00
C9     C     0.26830   0.42190   0.46870   0.01267  Uiso   1.00
C10    C     0.60900   0.46980   0.93470   0.01267  Uiso   1.00
C11    C     0.53010   0.60150   0.96560   0.01267  Uiso   1.00
C12    C     0.26300   0.53130   0.89060   0.01267  Uiso   1.00
C13    C     0.54370   0.93470   0.59550   0.01267  Uiso   1.00
C14    C     0.49570   0.96560   0.43290   0.01267  Uiso   1.00
C15    C     0.15360   0.89060   0.57810   0.01267  Uiso   1.00
C16    C     0.13920   0.59550   0.46980   0.01267  Uiso   1.00
C17    C     0.92860   0.43290   0.60150   0.01267  Uiso   1.00
C18    C     0.73170   0.57810   0.53130   0.01267  Uiso   1.00
N1     N     0.50100   0.44010   0.09760   0.01267  Uiso   1.00
N2     N     0.59860   0.09760   0.46230   0.01267  Uiso   1.00
N3     N     0.06090   0.46230   0.44010   0.01267  Uiso   1.00
N4     N     0.49900   0.55990   0.90240   0.01267  Uiso   1.00
N5     N     0.40140   0.90240   0.53770   0.01267  Uiso   1.00
N6     N     0.93910   0.53770   0.55990   0.01267  Uiso   1.00
O1     O     0.88350   0.29182   0.13592   0.01267  Uiso   1.00
O2     O     0.60063   0.28152   0.27793   0.01267  Uiso   1.00
O3     O     0.00391   0.36697   0.23144   0.01267  Uiso   1.00
O4     O     0.01942   0.13592   0.57226   0.01267  Uiso   1.00
O5     O     0.87856   0.27793   0.44055   0.01267  Uiso   1.00
O6     O     0.23535   0.23144   0.40159   0.01267  Uiso   1.00
O7     O     0.59168   0.57226   0.29182   0.01267  Uiso   1.00
O8     O     0.31911   0.44055   0.28152   0.01267  Uiso   1.00
O9     O     0.63694   0.40159   0.36697   0.01267  Uiso   1.00
O10    O     0.11650   0.70818   0.86408   0.01267  Uiso   1.00
O11    O     0.39937   0.71848   0.72207   0.01267  Uiso   1.00
O12    O     0.99609   0.63303   0.76856   0.01267  Uiso   1.00
O13    O     0.98058   0.86408   0.42774   0.01267  Uiso   1.00
O14    O     0.12144   0.72207   0.55945   0.01267  Uiso   1.00
O15    O     0.76465   0.76856   0.59841   0.01267  Uiso   1.00
O16    O     0.40832   0.42774   0.70818   0.01267  Uiso   1.00
O17    O     0.68089   0.55945   0.71848   0.01267  Uiso   1.00
O18    O     0.36306   0.59841   0.63303   0.01267  Uiso   1.00
