data_QOVWOO_clean
_audit_creation_date              2014-07-02
_audit_creation_method            'Materials Studio'
_symmetry_space_group_name_H-M    'P1'
_symmetry_Int_Tables_number       1
_symmetry_cell_setting            triclinic
loop_
_symmetry_equiv_pos_as_xyz
  x,y,z
_cell_length_a                    6.6812
_cell_length_b                    15.1642
_cell_length_c                    19.2395
_cell_angle_alpha                 90.0000
_cell_angle_beta                  95.9158
_cell_angle_gamma                 90.0000
loop_
_atom_site_label
_atom_site_type_symbol
_atom_site_fract_x
_atom_site_fract_y
_atom_site_fract_z
_atom_site_U_iso_or_equiv
_atom_site_adp_type
_atom_site_occupancy
Ga1    Ga    0.01928   0.25396   0.50432   0.01267  Uiso   1.00
Ga2    Ga    0.48072   0.75396   0.49568   0.01267  Uiso   1.00
Ga3    Ga    0.98072   0.74604   0.49568   0.01267  Uiso   1.00
Ga4    Ga    0.51928   0.24604   0.50432   0.01267  Uiso   1.00
Ga5    Ga    0.50000   0.00000   0.00000   0.01267  Uiso   1.00
Ga6    Ga    0.00000   0.50000   0.00000   0.01267  Uiso   1.00
Ga7    Ga    0.00000   0.00000   0.00000   0.01267  Uiso   1.00
Ga8    Ga    0.50000   0.50000   0.00000   0.01267  Uiso   1.00
H1     H     0.08149   0.09372   0.21268   0.01267  Uiso   1.00
H2     H     0.05727   0.12474   0.33119   0.01267  Uiso   1.00
H3     H     0.44831   0.14273   0.29176   0.01267  Uiso   1.00
H4     H     0.47252   0.11171   0.17324   0.01267  Uiso   1.00
H5     H     0.06010   0.17689   0.71918   0.01267  Uiso   1.00
H6     H     0.02772   0.14363   0.83680   0.01267  Uiso   1.00
H7     H     0.44732   0.06812   0.78401   0.01267  Uiso   1.00
H8     H     0.47970   0.10139   0.66639   0.01267  Uiso   1.00
H9     H     0.41851   0.59372   0.78732   0.01267  Uiso   1.00
H10    H     0.44273   0.62474   0.66881   0.01267  Uiso   1.00
H11    H     0.05169   0.64273   0.70824   0.01267  Uiso   1.00
H12    H     0.02748   0.61171   0.82676   0.01267  Uiso   1.00
H13    H     0.43990   0.67689   0.28082   0.01267  Uiso   1.00
H14    H     0.47228   0.64363   0.16320   0.01267  Uiso   1.00
H15    H     0.05268   0.56812   0.21599   0.01267  Uiso   1.00
H16    H     0.02030   0.60139   0.33361   0.01267  Uiso   1.00
H17    H     0.91851   0.90628   0.78732   0.01267  Uiso   1.00
H18    H     0.94273   0.87526   0.66881   0.01267  Uiso   1.00
H19    H     0.55169   0.85727   0.70824   0.01267  Uiso   1.00
H20    H     0.52748   0.88829   0.82676   0.01267  Uiso   1.00
H21    H     0.93990   0.82311   0.28082   0.01267  Uiso   1.00
H22    H     0.97228   0.85637   0.16320   0.01267  Uiso   1.00
H23    H     0.55268   0.93188   0.21599   0.01267  Uiso   1.00
H24    H     0.52030   0.89861   0.33361   0.01267  Uiso   1.00
H25    H     0.58149   0.40628   0.21268   0.01267  Uiso   1.00
H26    H     0.55727   0.37526   0.33119   0.01267  Uiso   1.00
H27    H     0.94831   0.35727   0.29176   0.01267  Uiso   1.00
H28    H     0.97252   0.38829   0.17324   0.01267  Uiso   1.00
H29    H     0.56010   0.32311   0.71918   0.01267  Uiso   1.00
H30    H     0.52772   0.35637   0.83680   0.01267  Uiso   1.00
H31    H     0.94732   0.43188   0.78401   0.01267  Uiso   1.00
H32    H     0.97970   0.39861   0.66639   0.01267  Uiso   1.00
C1     C     0.77902   0.10014   0.18313   0.01267  Uiso   1.00
C2     C     0.94947   0.10394   0.22917   0.01267  Uiso   1.00
C3     C     0.93535   0.12202   0.29826   0.01267  Uiso   1.00
C4     C     0.75078   0.13631   0.32131   0.01267  Uiso   1.00
C5     C     0.58033   0.13251   0.27527   0.01267  Uiso   1.00
C6     C     0.59445   0.11442   0.20618   0.01267  Uiso   1.00
C7     C     0.79427   0.08060   0.10849   0.01267  Uiso   1.00
C8     C     0.73553   0.15584   0.39595   0.01267  Uiso   1.00
C9     C     0.77259   0.14190   0.68303   0.01267  Uiso   1.00
C10    C     0.93233   0.15421   0.73270   0.01267  Uiso   1.00
C11    C     0.91345   0.13482   0.80127   0.01267  Uiso   1.00
C12    C     0.73483   0.10312   0.82016   0.01267  Uiso   1.00
C13    C     0.57509   0.09080   0.77049   0.01267  Uiso   1.00
C14    C     0.59397   0.11019   0.70192   0.01267  Uiso   1.00
C15    C     0.79299   0.16285   0.60896   0.01267  Uiso   1.00
C16    C     0.71443   0.08217   0.89423   0.01267  Uiso   1.00
C17    C     0.72098   0.60014   0.81687   0.01267  Uiso   1.00
C18    C     0.55053   0.60394   0.77083   0.01267  Uiso   1.00
C19    C     0.56465   0.62202   0.70174   0.01267  Uiso   1.00
C20    C     0.74922   0.63631   0.67869   0.01267  Uiso   1.00
C21    C     0.91967   0.63251   0.72473   0.01267  Uiso   1.00
C22    C     0.90555   0.61442   0.79382   0.01267  Uiso   1.00
C23    C     0.70573   0.58060   0.89151   0.01267  Uiso   1.00
C24    C     0.76447   0.65584   0.60405   0.01267  Uiso   1.00
C25    C     0.72741   0.64190   0.31697   0.01267  Uiso   1.00
C26    C     0.56767   0.65421   0.26730   0.01267  Uiso   1.00
C27    C     0.58655   0.63482   0.19873   0.01267  Uiso   1.00
C28    C     0.76517   0.60312   0.17984   0.01267  Uiso   1.00
C29    C     0.92491   0.59080   0.22951   0.01267  Uiso   1.00
C30    C     0.90603   0.61019   0.29808   0.01267  Uiso   1.00
C31    C     0.70701   0.66285   0.39104   0.01267  Uiso   1.00
C32    C     0.78557   0.58217   0.10577   0.01267  Uiso   1.00
C33    C     0.22098   0.89986   0.81687   0.01267  Uiso   1.00
C34    C     0.05053   0.89606   0.77083   0.01267  Uiso   1.00
C35    C     0.06465   0.87798   0.70174   0.01267  Uiso   1.00
C36    C     0.24922   0.86369   0.67869   0.01267  Uiso   1.00
C37    C     0.41967   0.86749   0.72473   0.01267  Uiso   1.00
C38    C     0.40555   0.88558   0.79382   0.01267  Uiso   1.00
C39    C     0.20573   0.91940   0.89151   0.01267  Uiso   1.00
C40    C     0.26447   0.84416   0.60405   0.01267  Uiso   1.00
C41    C     0.22741   0.85810   0.31697   0.01267  Uiso   1.00
C42    C     0.06767   0.84579   0.26730   0.01267  Uiso   1.00
C43    C     0.08655   0.86518   0.19873   0.01267  Uiso   1.00
C44    C     0.26517   0.89688   0.17984   0.01267  Uiso   1.00
C45    C     0.42491   0.90920   0.22951   0.01267  Uiso   1.00
C46    C     0.40603   0.88981   0.29808   0.01267  Uiso   1.00
C47    C     0.20701   0.83715   0.39104   0.01267  Uiso   1.00
C48    C     0.28557   0.91783   0.10577   0.01267  Uiso   1.00
C49    C     0.27902   0.39986   0.18313   0.01267  Uiso   1.00
C50    C     0.44947   0.39606   0.22917   0.01267  Uiso   1.00
C51    C     0.43535   0.37798   0.29826   0.01267  Uiso   1.00
C52    C     0.25078   0.36369   0.32131   0.01267  Uiso   1.00
C53    C     0.08033   0.36749   0.27527   0.01267  Uiso   1.00
C54    C     0.09445   0.38558   0.20618   0.01267  Uiso   1.00
C55    C     0.29427   0.41940   0.10849   0.01267  Uiso   1.00
C56    C     0.23553   0.34416   0.39595   0.01267  Uiso   1.00
C57    C     0.27259   0.35810   0.68303   0.01267  Uiso   1.00
C58    C     0.43233   0.34579   0.73270   0.01267  Uiso   1.00
C59    C     0.41345   0.36518   0.80127   0.01267  Uiso   1.00
C60    C     0.23483   0.39688   0.82016   0.01267  Uiso   1.00
C61    C     0.07509   0.40920   0.77049   0.01267  Uiso   1.00
C62    C     0.09397   0.38981   0.70192   0.01267  Uiso   1.00
C63    C     0.29299   0.33715   0.60896   0.01267  Uiso   1.00
C64    C     0.21443   0.41783   0.89423   0.01267  Uiso   1.00
O1     O     0.27180   0.18900   0.50100   0.01267  Uiso   1.00
O2     O     0.24650   0.06360   0.00010   0.01267  Uiso   1.00
O3     O     0.96508   0.06603   0.08732   0.01267  Uiso   1.00
O4     O     0.63655   0.07842   0.06561   0.01267  Uiso   1.00
O5     O     0.89300   0.15703   0.43897   0.01267  Uiso   1.00
O6     O     0.56497   0.17142   0.41697   0.01267  Uiso   1.00
O7     O     0.95851   0.19231   0.59145   0.01267  Uiso   1.00
O8     O     0.64496   0.15135   0.56290   0.01267  Uiso   1.00
O9     O     0.85933   0.09747   0.94074   0.01267  Uiso   1.00
O10    O     0.55204   0.04890   0.91129   0.01267  Uiso   1.00
O11    O     0.22820   0.68900   0.49900   0.01267  Uiso   1.00
O12    O     0.25350   0.56360   0.99990   0.01267  Uiso   1.00
O13    O     0.53492   0.56603   0.91268   0.01267  Uiso   1.00
O14    O     0.86345   0.57842   0.93439   0.01267  Uiso   1.00
O15    O     0.60700   0.65703   0.56103   0.01267  Uiso   1.00
O16    O     0.93503   0.67142   0.58303   0.01267  Uiso   1.00
O17    O     0.54149   0.69231   0.40855   0.01267  Uiso   1.00
O18    O     0.85504   0.65135   0.43710   0.01267  Uiso   1.00
O19    O     0.64067   0.59747   0.05926   0.01267  Uiso   1.00
O20    O     0.94796   0.54890   0.08871   0.01267  Uiso   1.00
O21    O     0.72820   0.81100   0.49900   0.01267  Uiso   1.00
O22    O     0.75350   0.93640   0.99990   0.01267  Uiso   1.00
O23    O     0.03492   0.93397   0.91268   0.01267  Uiso   1.00
O24    O     0.36345   0.92158   0.93439   0.01267  Uiso   1.00
O25    O     0.10700   0.84297   0.56103   0.01267  Uiso   1.00
O26    O     0.43503   0.82858   0.58303   0.01267  Uiso   1.00
O27    O     0.04149   0.80769   0.40855   0.01267  Uiso   1.00
O28    O     0.35504   0.84865   0.43710   0.01267  Uiso   1.00
O29    O     0.14067   0.90253   0.05926   0.01267  Uiso   1.00
O30    O     0.44796   0.95110   0.08871   0.01267  Uiso   1.00
O31    O     0.77180   0.31100   0.50100   0.01267  Uiso   1.00
O32    O     0.74650   0.43640   0.00010   0.01267  Uiso   1.00
O33    O     0.46508   0.43397   0.08732   0.01267  Uiso   1.00
O34    O     0.13655   0.42158   0.06561   0.01267  Uiso   1.00
O35    O     0.39300   0.34297   0.43897   0.01267  Uiso   1.00
O36    O     0.06497   0.32858   0.41697   0.01267  Uiso   1.00
O37    O     0.45851   0.30769   0.59145   0.01267  Uiso   1.00
O38    O     0.14496   0.34865   0.56290   0.01267  Uiso   1.00
O39    O     0.35933   0.40253   0.94074   0.01267  Uiso   1.00
O40    O     0.05204   0.45110   0.91129   0.01267  Uiso   1.00
