data_QUFGIH_clean
_audit_creation_date              2014-07-02
_audit_creation_method            'Materials Studio'
_symmetry_space_group_name_H-M    'P1'
_symmetry_Int_Tables_number       1
_symmetry_cell_setting            triclinic
loop_
_symmetry_equiv_pos_as_xyz
  x,y,z
_cell_length_a                    9.2187
_cell_length_b                    14.5811
_cell_length_c                    14.8652
_cell_angle_alpha                 90.0000
_cell_angle_beta                  90.0000
_cell_angle_gamma                 90.0000
loop_
_atom_site_label
_atom_site_type_symbol
_atom_site_fract_x
_atom_site_fract_y
_atom_site_fract_z
_atom_site_U_iso_or_equiv
_atom_site_adp_type
_atom_site_occupancy
Mg1    Mg    0.32910   0.75000   0.48100   0.01267  Uiso   1.00
Mg2    Mg    0.67090   0.25000   0.51900   0.01267  Uiso   1.00
Mg3    Mg    0.67090   0.75000   0.98100   0.01267  Uiso   1.00
Mg4    Mg    0.32910   0.25000   0.01900   0.01267  Uiso   1.00
Al1    Al    0.85200   0.88550   0.65210   0.01267  Uiso   1.00
Al2    Al    0.14800   0.38550   0.34790   0.01267  Uiso   1.00
Al3    Al    0.14800   0.61450   0.15210   0.01267  Uiso   1.00
Al4    Al    0.85200   0.11450   0.84790   0.01267  Uiso   1.00
Al5    Al    0.14800   0.11450   0.34790   0.01267  Uiso   1.00
Al6    Al    0.85200   0.61450   0.65210   0.01267  Uiso   1.00
Al7    Al    0.85200   0.38550   0.84790   0.01267  Uiso   1.00
Al8    Al    0.14800   0.88550   0.15210   0.01267  Uiso   1.00
Al9    Al    0.10110   0.75000   0.86470   0.01267  Uiso   1.00
Al10   Al    0.89890   0.25000   0.13530   0.01267  Uiso   1.00
Al11   Al    0.89890   0.75000   0.36470   0.01267  Uiso   1.00
Al12   Al    0.10110   0.25000   0.63530   0.01267  Uiso   1.00
P1     P     0.84520   0.89590   0.86440   0.01267  Uiso   1.00
P2     P     0.15480   0.39590   0.13560   0.01267  Uiso   1.00
P3     P     0.15480   0.60410   0.36440   0.01267  Uiso   1.00
P4     P     0.84520   0.10410   0.63560   0.01267  Uiso   1.00
P5     P     0.15480   0.10410   0.13560   0.01267  Uiso   1.00
P6     P     0.84520   0.60410   0.86440   0.01267  Uiso   1.00
P7     P     0.84520   0.39590   0.63560   0.01267  Uiso   1.00
P8     P     0.15480   0.89590   0.36440   0.01267  Uiso   1.00
P9     P     0.11100   0.75000   0.66530   0.01267  Uiso   1.00
P10    P     0.31490   0.75000   0.03620   0.01267  Uiso   1.00
P11    P     0.88900   0.25000   0.33470   0.01267  Uiso   1.00
P12    P     0.68510   0.25000   0.96380   0.01267  Uiso   1.00
P13    P     0.88900   0.75000   0.16530   0.01267  Uiso   1.00
P14    P     0.68510   0.75000   0.53620   0.01267  Uiso   1.00
P15    P     0.11100   0.25000   0.83470   0.01267  Uiso   1.00
P16    P     0.31490   0.25000   0.46380   0.01267  Uiso   1.00
O1     O     0.02750   0.83720   0.64030   0.01267  Uiso   1.00
O2     O     0.27200   0.83980   0.07370   0.01267  Uiso   1.00
O3     O     0.73260   0.86360   0.93050   0.01267  Uiso   1.00
O4     O     0.87310   0.99740   0.88840   0.01267  Uiso   1.00
O5     O     0.98660   0.84740   0.88090   0.01267  Uiso   1.00
O6     O     0.78980   0.88130   0.76720   0.01267  Uiso   1.00
O7     O     0.97250   0.33720   0.35970   0.01267  Uiso   1.00
O8     O     0.72800   0.33980   0.92630   0.01267  Uiso   1.00
O9     O     0.26740   0.36360   0.06950   0.01267  Uiso   1.00
O10    O     0.12690   0.49740   0.11160   0.01267  Uiso   1.00
O11    O     0.01340   0.34740   0.11910   0.01267  Uiso   1.00
O12    O     0.21020   0.38130   0.23280   0.01267  Uiso   1.00
O13    O     0.97250   0.66280   0.14030   0.01267  Uiso   1.00
O14    O     0.72800   0.66020   0.57370   0.01267  Uiso   1.00
O15    O     0.26740   0.63640   0.43050   0.01267  Uiso   1.00
O16    O     0.12690   0.50260   0.38840   0.01267  Uiso   1.00
O17    O     0.01340   0.65260   0.38090   0.01267  Uiso   1.00
O18    O     0.21020   0.61870   0.26720   0.01267  Uiso   1.00
O19    O     0.02750   0.16280   0.85970   0.01267  Uiso   1.00
O20    O     0.27200   0.16020   0.42630   0.01267  Uiso   1.00
O21    O     0.73260   0.13640   0.56950   0.01267  Uiso   1.00
O22    O     0.87310   0.00260   0.61160   0.01267  Uiso   1.00
O23    O     0.98660   0.15260   0.61910   0.01267  Uiso   1.00
O24    O     0.78980   0.11870   0.73280   0.01267  Uiso   1.00
O25    O     0.97250   0.16280   0.35970   0.01267  Uiso   1.00
O26    O     0.72800   0.16020   0.92630   0.01267  Uiso   1.00
O27    O     0.26740   0.13640   0.06950   0.01267  Uiso   1.00
O28    O     0.12690   0.00260   0.11160   0.01267  Uiso   1.00
O29    O     0.01340   0.15260   0.11910   0.01267  Uiso   1.00
O30    O     0.21020   0.11870   0.23280   0.01267  Uiso   1.00
O31    O     0.02750   0.66280   0.64030   0.01267  Uiso   1.00
O32    O     0.27200   0.66020   0.07370   0.01267  Uiso   1.00
O33    O     0.73260   0.63640   0.93050   0.01267  Uiso   1.00
O34    O     0.87310   0.50260   0.88840   0.01267  Uiso   1.00
O35    O     0.98660   0.65260   0.88090   0.01267  Uiso   1.00
O36    O     0.78980   0.61870   0.76720   0.01267  Uiso   1.00
O37    O     0.02750   0.33720   0.85970   0.01267  Uiso   1.00
O38    O     0.27200   0.33980   0.42630   0.01267  Uiso   1.00
O39    O     0.73260   0.36360   0.56950   0.01267  Uiso   1.00
O40    O     0.87310   0.49740   0.61160   0.01267  Uiso   1.00
O41    O     0.98660   0.34740   0.61910   0.01267  Uiso   1.00
O42    O     0.78980   0.38130   0.73280   0.01267  Uiso   1.00
O43    O     0.97250   0.83720   0.14030   0.01267  Uiso   1.00
O44    O     0.72800   0.83980   0.57370   0.01267  Uiso   1.00
O45    O     0.26740   0.86360   0.43050   0.01267  Uiso   1.00
O46    O     0.12690   0.99740   0.38840   0.01267  Uiso   1.00
O47    O     0.01340   0.84740   0.38090   0.01267  Uiso   1.00
O48    O     0.21020   0.88130   0.26720   0.01267  Uiso   1.00
O49    O     0.18560   0.75000   0.75700   0.01267  Uiso   1.00
O50    O     0.24280   0.75000   0.60540   0.01267  Uiso   1.00
O51    O     0.24370   0.75000   0.94630   0.01267  Uiso   1.00
O52    O     0.46850   0.75000   0.00610   0.01267  Uiso   1.00
O53    O     0.81440   0.25000   0.24300   0.01267  Uiso   1.00
O54    O     0.75720   0.25000   0.39460   0.01267  Uiso   1.00
O55    O     0.75630   0.25000   0.05370   0.01267  Uiso   1.00
O56    O     0.53150   0.25000   0.99390   0.01267  Uiso   1.00
O57    O     0.81440   0.75000   0.25700   0.01267  Uiso   1.00
O58    O     0.75720   0.75000   0.10540   0.01267  Uiso   1.00
O59    O     0.75630   0.75000   0.44630   0.01267  Uiso   1.00
O60    O     0.53150   0.75000   0.50610   0.01267  Uiso   1.00
O61    O     0.18560   0.25000   0.74300   0.01267  Uiso   1.00
O62    O     0.24280   0.25000   0.89460   0.01267  Uiso   1.00
O63    O     0.24370   0.25000   0.55370   0.01267  Uiso   1.00
O64    O     0.46850   0.25000   0.49390   0.01267  Uiso   1.00
