data_QUPZAC_clean
_audit_creation_date              2014-07-02
_audit_creation_method            'Materials Studio'
_symmetry_space_group_name_H-M    'P1'
_symmetry_Int_Tables_number       1
_symmetry_cell_setting            triclinic
loop_
_symmetry_equiv_pos_as_xyz
  x,y,z
_cell_length_a                    7.8110
_cell_length_b                    9.2960
_cell_length_c                    25.5620
_cell_angle_alpha                 90.0000
_cell_angle_beta                  90.0000
_cell_angle_gamma                 97.2700
loop_
_atom_site_label
_atom_site_type_symbol
_atom_site_fract_x
_atom_site_fract_y
_atom_site_fract_z
_atom_site_U_iso_or_equiv
_atom_site_adp_type
_atom_site_occupancy
Sm1    Sm    0.41246   0.48666   0.34962   0.01267  Uiso   1.00
Sm2    Sm    0.08754   0.51334   0.84962   0.01267  Uiso   1.00
Sm3    Sm    0.58754   0.51334   0.65038   0.01267  Uiso   1.00
Sm4    Sm    0.91246   0.48666   0.15038   0.01267  Uiso   1.00
Cu1    Cu    0.50000   0.00000   0.50000   0.01267  Uiso   1.00
Cu2    Cu    0.00000   0.00000   0.00000   0.01267  Uiso   1.00
C1     C     0.72240   0.39970   0.27230   0.01267  Uiso   1.00
C2     C     0.66430   0.25130   0.29540   0.01267  Uiso   1.00
C3     C     0.73110   0.12900   0.27780   0.01267  Uiso   1.00
C4     C     0.67270   0.99620   0.30100   0.01267  Uiso   1.00
C5     C     0.55310   0.99150   0.34130   0.01267  Uiso   1.00
C6     C     0.49390   0.12040   0.35670   0.01267  Uiso   1.00
C7     C     0.48460   0.85160   0.36840   0.01267  Uiso   1.00
C8     C     0.69780   0.77940   0.49240   0.01267  Uiso   1.00
C9     C     0.79870   0.90410   0.46360   0.01267  Uiso   1.00
C10    C     0.94970   0.89390   0.43570   0.01267  Uiso   1.00
C11    C     0.03090   0.01920   0.41180   0.01267  Uiso   1.00
C12    C     0.95930   0.14840   0.41540   0.01267  Uiso   1.00
C13    C     0.80610   0.15010   0.44320   0.01267  Uiso   1.00
C14    C     0.04170   0.28630   0.38990   0.01267  Uiso   1.00
C15    C     0.77760   0.60030   0.77230   0.01267  Uiso   1.00
C16    C     0.83570   0.74870   0.79540   0.01267  Uiso   1.00
C17    C     0.76890   0.87100   0.77780   0.01267  Uiso   1.00
C18    C     0.82730   0.00380   0.80100   0.01267  Uiso   1.00
C19    C     0.94690   0.00850   0.84130   0.01267  Uiso   1.00
C20    C     0.00610   0.87960   0.85670   0.01267  Uiso   1.00
C21    C     0.01540   0.14840   0.86840   0.01267  Uiso   1.00
C22    C     0.80220   0.22060   0.99240   0.01267  Uiso   1.00
C23    C     0.70130   0.09590   0.96360   0.01267  Uiso   1.00
C24    C     0.55030   0.10610   0.93570   0.01267  Uiso   1.00
C25    C     0.46910   0.98080   0.91180   0.01267  Uiso   1.00
C26    C     0.54070   0.85160   0.91540   0.01267  Uiso   1.00
C27    C     0.69390   0.84990   0.94320   0.01267  Uiso   1.00
C28    C     0.45830   0.71370   0.88990   0.01267  Uiso   1.00
C29    C     0.27760   0.60030   0.72770   0.01267  Uiso   1.00
C30    C     0.33570   0.74870   0.70460   0.01267  Uiso   1.00
C31    C     0.26890   0.87100   0.72220   0.01267  Uiso   1.00
C32    C     0.32730   0.00380   0.69900   0.01267  Uiso   1.00
C33    C     0.44690   0.00850   0.65870   0.01267  Uiso   1.00
C34    C     0.50610   0.87960   0.64330   0.01267  Uiso   1.00
C35    C     0.51540   0.14840   0.63160   0.01267  Uiso   1.00
C36    C     0.30220   0.22060   0.50760   0.01267  Uiso   1.00
C37    C     0.20130   0.09590   0.53640   0.01267  Uiso   1.00
C38    C     0.05030   0.10610   0.56430   0.01267  Uiso   1.00
C39    C     0.96910   0.98080   0.58820   0.01267  Uiso   1.00
C40    C     0.04070   0.85160   0.58460   0.01267  Uiso   1.00
C41    C     0.19390   0.84990   0.55680   0.01267  Uiso   1.00
C42    C     0.95830   0.71370   0.61010   0.01267  Uiso   1.00
C43    C     0.22240   0.39970   0.22770   0.01267  Uiso   1.00
C44    C     0.16430   0.25130   0.20460   0.01267  Uiso   1.00
C45    C     0.23110   0.12900   0.22220   0.01267  Uiso   1.00
C46    C     0.17270   0.99620   0.19900   0.01267  Uiso   1.00
C47    C     0.05310   0.99150   0.15870   0.01267  Uiso   1.00
C48    C     0.99390   0.12040   0.14330   0.01267  Uiso   1.00
C49    C     0.98460   0.85160   0.13160   0.01267  Uiso   1.00
C50    C     0.19780   0.77940   0.00760   0.01267  Uiso   1.00
C51    C     0.29870   0.90410   0.03640   0.01267  Uiso   1.00
C52    C     0.44970   0.89390   0.06430   0.01267  Uiso   1.00
C53    C     0.53090   0.01920   0.08820   0.01267  Uiso   1.00
C54    C     0.45930   0.14840   0.08460   0.01267  Uiso   1.00
C55    C     0.30610   0.15010   0.05680   0.01267  Uiso   1.00
C56    C     0.54170   0.28630   0.11010   0.01267  Uiso   1.00
N1     N     0.54690   0.24850   0.33379   0.01267  Uiso   1.00
N2     N     0.72850   0.02990   0.46673   0.01267  Uiso   1.00
N3     N     0.95310   0.75150   0.83379   0.01267  Uiso   1.00
N4     N     0.77150   0.97010   0.96673   0.01267  Uiso   1.00
N5     N     0.45310   0.75150   0.66621   0.01267  Uiso   1.00
N6     N     0.27150   0.97010   0.53327   0.01267  Uiso   1.00
N7     N     0.04690   0.24850   0.16621   0.01267  Uiso   1.00
N8     N     0.22850   0.02990   0.03327   0.01267  Uiso   1.00
O1     O     0.66680   0.50590   0.29394   0.01267  Uiso   1.00
O2     O     0.82350   0.40490   0.23438   0.01267  Uiso   1.00
O3     O     0.50590   0.73680   0.34402   0.01267  Uiso   1.00
O4     O     0.41160   0.85830   0.41147   0.01267  Uiso   1.00
O5     O     0.56320   0.80930   0.51639   0.01267  Uiso   1.00
O6     O     0.75150   0.65970   0.49158   0.01267  Uiso   1.00
O7     O     0.19810   0.29280   0.37722   0.01267  Uiso   1.00
O8     O     0.94840   0.38380   0.38310   0.01267  Uiso   1.00
O9     O     0.83320   0.49410   0.79394   0.01267  Uiso   1.00
O10    O     0.67650   0.59510   0.73438   0.01267  Uiso   1.00
O11    O     0.99410   0.26320   0.84402   0.01267  Uiso   1.00
O12    O     0.08840   0.14170   0.91147   0.01267  Uiso   1.00
O13    O     0.93680   0.19070   0.01639   0.01267  Uiso   1.00
O14    O     0.74850   0.34030   0.99158   0.01267  Uiso   1.00
O15    O     0.30190   0.70720   0.87722   0.01267  Uiso   1.00
O16    O     0.55160   0.61620   0.88310   0.01267  Uiso   1.00
O17    O     0.33320   0.49410   0.70606   0.01267  Uiso   1.00
O18    O     0.17650   0.59510   0.76562   0.01267  Uiso   1.00
O19    O     0.49410   0.26320   0.65598   0.01267  Uiso   1.00
O20    O     0.58840   0.14170   0.58853   0.01267  Uiso   1.00
O21    O     0.43680   0.19070   0.48361   0.01267  Uiso   1.00
O22    O     0.24850   0.34030   0.50842   0.01267  Uiso   1.00
O23    O     0.80190   0.70720   0.62278   0.01267  Uiso   1.00
O24    O     0.05160   0.61620   0.61690   0.01267  Uiso   1.00
O25    O     0.16680   0.50590   0.20606   0.01267  Uiso   1.00
O26    O     0.32350   0.40490   0.26562   0.01267  Uiso   1.00
O27    O     0.00590   0.73680   0.15598   0.01267  Uiso   1.00
O28    O     0.91160   0.85830   0.08853   0.01267  Uiso   1.00
O29    O     0.06320   0.80930   0.98361   0.01267  Uiso   1.00
O30    O     0.25150   0.65970   0.00842   0.01267  Uiso   1.00
O31    O     0.69810   0.29280   0.12278   0.01267  Uiso   1.00
O32    O     0.44840   0.38380   0.11690   0.01267  Uiso   1.00
