data_QUQGEP_neutral
_audit_creation_date              2014-07-02
_audit_creation_method            'Materials Studio'
_symmetry_space_group_name_H-M    'P1'
_symmetry_Int_Tables_number       1
_symmetry_cell_setting            triclinic
loop_
_symmetry_equiv_pos_as_xyz
  x,y,z
_cell_length_a                    11.9080
_cell_length_b                    16.3176
_cell_length_c                    16.3176
_cell_angle_alpha                 65.7172
_cell_angle_beta                  75.9213
_cell_angle_gamma                 104.0790
loop_
_atom_site_label
_atom_site_type_symbol
_atom_site_fract_x
_atom_site_fract_y
_atom_site_fract_z
_atom_site_U_iso_or_equiv
_atom_site_adp_type
_atom_site_occupancy
Ni1    Ni    0.52021   0.95226   0.59798   0.01267  Uiso   1.00
Ni2    Ni    0.89681   0.64744   0.39237   0.01267  Uiso   1.00
Ni3    Ni    0.11819   0.59798   0.44976   0.01267  Uiso   1.00
Ni4    Ni    0.28918   0.39237   0.96019   0.01267  Uiso   1.00
Ni5    Ni    0.56795   0.44976   0.95226   0.01267  Uiso   1.00
Ni6    Ni    0.24937   0.96019   0.64744   0.01267  Uiso   1.00
Ni7    Ni    0.47979   0.04774   0.40202   0.01267  Uiso   1.00
Ni8    Ni    0.10319   0.35256   0.60763   0.01267  Uiso   1.00
Ni9    Ni    0.88181   0.40202   0.55024   0.01267  Uiso   1.00
Ni10   Ni    0.71082   0.60763   0.03981   0.01267  Uiso   1.00
Ni11   Ni    0.43205   0.55024   0.04774   0.01267  Uiso   1.00
Ni12   Ni    0.75063   0.03981   0.35256   0.01267  Uiso   1.00
H1     H     0.44610   0.52660   0.61500   0.01267  Uiso   1.00
H2     H     0.81740   0.79390   0.43530   0.01267  Uiso   1.00
H3     H     0.62230   0.52200   0.52490   0.01267  Uiso   1.00
H4     H     0.45570   0.67030   0.61710   0.01267  Uiso   1.00
H5     H     0.65800   0.84910   0.70830   0.01267  Uiso   1.00
H6     H     0.69600   0.12170   0.59210   0.01267  Uiso   1.00
H7     H     0.94030   0.04420   0.70480   0.01267  Uiso   1.00
H8     H     0.82680   0.88370   0.75190   0.01267  Uiso   1.00
H9     H     0.92150   0.76340   0.19690   0.01267  Uiso   1.00
H10    H     0.89930   0.80040   0.22610   0.01267  Uiso   1.00
H11    H     0.06110   0.61500   0.85840   0.01267  Uiso   1.00
H12    H     0.25270   0.43530   0.77080   0.01267  Uiso   1.00
H13    H     0.14720   0.52490   0.95310   0.01267  Uiso   1.00
H14    H     0.07280   0.61710   0.71260   0.01267  Uiso   1.00
H15    H     0.36630   0.70830   0.44260   0.01267  Uiso   1.00
H16    H     0.28810   0.59210   0.28620   0.01267  Uiso   1.00
H17    H     0.64510   0.70480   0.25100   0.01267  Uiso   1.00
H18    H     0.57870   0.75190   0.36440   0.01267  Uiso   1.00
H19    H     0.11840   0.19690   0.03970   0.01267  Uiso   1.00
H20    H     0.12540   0.22610   0.97350   0.01267  Uiso   1.00
H21    H     0.91950   0.85840   0.52660   0.01267  Uiso   1.00
H22    H     0.02350   0.77080   0.79390   0.01267  Uiso   1.00
H23    H     0.10030   0.95310   0.52200   0.01267  Uiso   1.00
H24    H     0.78540   0.71260   0.67030   0.01267  Uiso   1.00
H25    H     0.80890   0.44260   0.84910   0.01267  Uiso   1.00
H26    H     0.57430   0.28620   0.12170   0.01267  Uiso   1.00
H27    H     0.89610   0.25100   0.04420   0.01267  Uiso   1.00
H28    H     0.94310   0.36440   0.88370   0.01267  Uiso   1.00
H29    H     0.15810   0.03970   0.76340   0.01267  Uiso   1.00
H30    H     0.09890   0.97350   0.80040   0.01267  Uiso   1.00
H31    H     0.55390   0.47340   0.38500   0.01267  Uiso   1.00
H32    H     0.18260   0.20610   0.56470   0.01267  Uiso   1.00
H33    H     0.37770   0.47800   0.47510   0.01267  Uiso   1.00
H34    H     0.54430   0.32970   0.38290   0.01267  Uiso   1.00
H35    H     0.34200   0.15090   0.29170   0.01267  Uiso   1.00
H36    H     0.30400   0.87830   0.40790   0.01267  Uiso   1.00
H37    H     0.05970   0.95580   0.29520   0.01267  Uiso   1.00
H38    H     0.17320   0.11630   0.24810   0.01267  Uiso   1.00
H39    H     0.07850   0.23660   0.80310   0.01267  Uiso   1.00
H40    H     0.10070   0.19960   0.77390   0.01267  Uiso   1.00
H41    H     0.93890   0.38500   0.14160   0.01267  Uiso   1.00
H42    H     0.74730   0.56470   0.22920   0.01267  Uiso   1.00
H43    H     0.85280   0.47510   0.04690   0.01267  Uiso   1.00
H44    H     0.92720   0.38290   0.28740   0.01267  Uiso   1.00
H45    H     0.63370   0.29170   0.55740   0.01267  Uiso   1.00
H46    H     0.71190   0.40790   0.71380   0.01267  Uiso   1.00
H47    H     0.35490   0.29520   0.74900   0.01267  Uiso   1.00
H48    H     0.42130   0.24810   0.63560   0.01267  Uiso   1.00
H49    H     0.88160   0.80310   0.96030   0.01267  Uiso   1.00
H50    H     0.87460   0.77390   0.02650   0.01267  Uiso   1.00
H51    H     0.08050   0.14160   0.47340   0.01267  Uiso   1.00
H52    H     0.97650   0.22920   0.20610   0.01267  Uiso   1.00
H53    H     0.89970   0.04690   0.47800   0.01267  Uiso   1.00
H54    H     0.21460   0.28740   0.32970   0.01267  Uiso   1.00
H55    H     0.19110   0.55740   0.15090   0.01267  Uiso   1.00
H56    H     0.42570   0.71380   0.87830   0.01267  Uiso   1.00
H57    H     0.10390   0.74900   0.95580   0.01267  Uiso   1.00
H58    H     0.05690   0.63560   0.11630   0.01267  Uiso   1.00
H59    H     0.84190   0.96030   0.23660   0.01267  Uiso   1.00
H60    H     0.90110   0.02650   0.19960   0.01267  Uiso   1.00
C1     C     0.52051   0.58161   0.57938   0.01267  Uiso   1.00
C2     C     0.74166   0.73971   0.47213   0.01267  Uiso   1.00
C3     C     0.63920   0.74884   0.52494   0.01267  Uiso   1.00
C4     C     0.62680   0.57958   0.52488   0.01267  Uiso   1.00
C5     C     0.52605   0.66726   0.58031   0.01267  Uiso   1.00
C6     C     0.70118   0.91307   0.69163   0.01267  Uiso   1.00
C7     C     0.72490   0.07387   0.62227   0.01267  Uiso   1.00
C8     C     0.82917   0.10039   0.64258   0.01267  Uiso   1.00
C9     C     0.86969   0.02856   0.69069   0.01267  Uiso   1.00
C10    C     0.80348   0.93356   0.71722   0.01267  Uiso   1.00
C11    C     0.65051   0.84522   0.51929   0.01267  Uiso   1.00
C12    C     0.89535   0.20592   0.61107   0.01267  Uiso   1.00
C13    C     0.09989   0.57938   0.83901   0.01267  Uiso   1.00
C14    C     0.21379   0.47213   0.78816   0.01267  Uiso   1.00
C15    C     0.16414   0.52494   0.72622   0.01267  Uiso   1.00
C16    C     0.15168   0.52488   0.89554   0.01267  Uiso   1.00
C17    C     0.10636   0.58031   0.75243   0.01267  Uiso   1.00
C18    C     0.39281   0.69163   0.39530   0.01267  Uiso   1.00
C19    C     0.34717   0.62227   0.30386   0.01267  Uiso   1.00
C20    C     0.47175   0.64258   0.25703   0.01267  Uiso   1.00
C21    C     0.56038   0.69069   0.28075   0.01267  Uiso   1.00
C22    C     0.52070   0.71722   0.34922   0.01267  Uiso   1.00
C23    C     0.16980   0.51929   0.63549   0.01267  Uiso   1.00
C24    C     0.50642   0.61107   0.18301   0.01267  Uiso   1.00
C25    C     0.93890   0.83901   0.58161   0.01267  Uiso   1.00
C26    C     0.00195   0.78816   0.73971   0.01267  Uiso   1.00
C27    C     0.89036   0.72622   0.74884   0.01267  Uiso   1.00
C28    C     0.04722   0.89554   0.57958   0.01267  Uiso   1.00
C29    C     0.85879   0.75243   0.66726   0.01267  Uiso   1.00
C30    C     0.78811   0.39530   0.91307   0.01267  Uiso   1.00
C31    C     0.65103   0.30386   0.07387   0.01267  Uiso   1.00
C32    C     0.72878   0.25703   0.10039   0.01267  Uiso   1.00
C33    C     0.84113   0.28075   0.02856   0.01267  Uiso   1.00
C34    C     0.86992   0.34922   0.93356   0.01267  Uiso   1.00
C35    C     0.80529   0.63549   0.84522   0.01267  Uiso   1.00
C36    C     0.68943   0.18301   0.20592   0.01267  Uiso   1.00
C37    C     0.47949   0.41839   0.42062   0.01267  Uiso   1.00
C38    C     0.25834   0.26029   0.52787   0.01267  Uiso   1.00
C39    C     0.36080   0.25116   0.47506   0.01267  Uiso   1.00
C40    C     0.37320   0.42042   0.47512   0.01267  Uiso   1.00
C41    C     0.47395   0.33274   0.41969   0.01267  Uiso   1.00
C42    C     0.29882   0.08693   0.30837   0.01267  Uiso   1.00
C43    C     0.27510   0.92613   0.37773   0.01267  Uiso   1.00
C44    C     0.17083   0.89961   0.35742   0.01267  Uiso   1.00
C45    C     0.13031   0.97144   0.30931   0.01267  Uiso   1.00
C46    C     0.19652   0.06644   0.28278   0.01267  Uiso   1.00
C47    C     0.34949   0.15478   0.48071   0.01267  Uiso   1.00
C48    C     0.10465   0.79408   0.38893   0.01267  Uiso   1.00
C49    C     0.90011   0.42062   0.16099   0.01267  Uiso   1.00
C50    C     0.78621   0.52787   0.21184   0.01267  Uiso   1.00
C51    C     0.83586   0.47506   0.27378   0.01267  Uiso   1.00
C52    C     0.84832   0.47512   0.10446   0.01267  Uiso   1.00
C53    C     0.89364   0.41969   0.24757   0.01267  Uiso   1.00
C54    C     0.60719   0.30837   0.60470   0.01267  Uiso   1.00
C55    C     0.65283   0.37773   0.69614   0.01267  Uiso   1.00
C56    C     0.52825   0.35742   0.74297   0.01267  Uiso   1.00
C57    C     0.43962   0.30931   0.71925   0.01267  Uiso   1.00
C58    C     0.47930   0.28278   0.65078   0.01267  Uiso   1.00
C59    C     0.83020   0.48071   0.36451   0.01267  Uiso   1.00
C60    C     0.49358   0.38893   0.81699   0.01267  Uiso   1.00
C61    C     0.06110   0.16099   0.41839   0.01267  Uiso   1.00
C62    C     0.99805   0.21184   0.26029   0.01267  Uiso   1.00
C63    C     0.10964   0.27378   0.25116   0.01267  Uiso   1.00
C64    C     0.95278   0.10446   0.42042   0.01267  Uiso   1.00
C65    C     0.14121   0.24757   0.33274   0.01267  Uiso   1.00
C66    C     0.21189   0.60470   0.08693   0.01267  Uiso   1.00
C67    C     0.34897   0.69614   0.92613   0.01267  Uiso   1.00
C68    C     0.27122   0.74297   0.89961   0.01267  Uiso   1.00
C69    C     0.15887   0.71925   0.97144   0.01267  Uiso   1.00
C70    C     0.13008   0.65078   0.06644   0.01267  Uiso   1.00
C71    C     0.19471   0.36451   0.15478   0.01267  Uiso   1.00
C72    C     0.31057   0.81699   0.79408   0.01267  Uiso   1.00
N1     N     0.32887   0.84767   0.56566   0.01267  Uiso   1.00
N2     N     0.73690   0.65674   0.47154   0.01267  Uiso   1.00
N3     N     0.66275   0.98225   0.64390   0.01267  Uiso   1.00
N4     N     0.43944   0.04511   0.70499   0.01267  Uiso   1.00
N5     N     0.29261   0.77007   0.57944   0.01267  Uiso   1.00
N6     N     0.43456   0.04180   0.63502   0.01267  Uiso   1.00
N7     N     0.44488   0.04868   0.77324   0.01267  Uiso   1.00
N8     N     0.36941   0.93293   0.55060   0.01267  Uiso   1.00
N9     N     0.89453   0.56566   0.58667   0.01267  Uiso   1.00
N10    N     0.20844   0.47154   0.87172   0.01267  Uiso   1.00
N11    N     0.30665   0.64390   0.37385   0.01267  Uiso   1.00
N12    N     0.14443   0.70499   0.24990   0.01267  Uiso   1.00
N13    N     0.87205   0.57944   0.65049   0.01267  Uiso   1.00
N14    N     0.06958   0.63502   0.32318   0.01267  Uiso   1.00
N15    N     0.21812   0.77324   0.17808   0.01267  Uiso   1.00
N16    N     0.92001   0.55060   0.51647   0.01267  Uiso   1.00
N17    N     0.48120   0.58667   0.84767   0.01267  Uiso   1.00
N18    N     0.08016   0.87172   0.65674   0.01267  Uiso   1.00
N19    N     0.68050   0.37385   0.98225   0.01267  Uiso   1.00
N20    N     0.39433   0.24990   0.04511   0.01267  Uiso   1.00
N21    N     0.52254   0.65049   0.77007   0.01267  Uiso   1.00
N22    N     0.39276   0.32318   0.04180   0.01267  Uiso   1.00
N23    N     0.39620   0.17808   0.04868   0.01267  Uiso   1.00
N24    N     0.43648   0.51647   0.93293   0.01267  Uiso   1.00
N25    N     0.67113   0.15233   0.43434   0.01267  Uiso   1.00
N26    N     0.26310   0.34326   0.52846   0.01267  Uiso   1.00
N27    N     0.33725   0.01775   0.35610   0.01267  Uiso   1.00
N28    N     0.56056   0.95489   0.29501   0.01267  Uiso   1.00
N29    N     0.70739   0.22993   0.42056   0.01267  Uiso   1.00
N30    N     0.56544   0.95820   0.36498   0.01267  Uiso   1.00
N31    N     0.55512   0.95132   0.22676   0.01267  Uiso   1.00
N32    N     0.63059   0.06707   0.44940   0.01267  Uiso   1.00
N33    N     0.10547   0.43434   0.41333   0.01267  Uiso   1.00
N34    N     0.79156   0.52846   0.12828   0.01267  Uiso   1.00
N35    N     0.69335   0.35610   0.62615   0.01267  Uiso   1.00
N36    N     0.85557   0.29501   0.75010   0.01267  Uiso   1.00
N37    N     0.12795   0.42056   0.34951   0.01267  Uiso   1.00
N38    N     0.93042   0.36498   0.67682   0.01267  Uiso   1.00
N39    N     0.78188   0.22676   0.82192   0.01267  Uiso   1.00
N40    N     0.07999   0.44940   0.48353   0.01267  Uiso   1.00
N41    N     0.51880   0.41333   0.15233   0.01267  Uiso   1.00
N42    N     0.91984   0.12828   0.34326   0.01267  Uiso   1.00
N43    N     0.31950   0.62615   0.01775   0.01267  Uiso   1.00
N44    N     0.60567   0.75010   0.95489   0.01267  Uiso   1.00
N45    N     0.47746   0.34951   0.22993   0.01267  Uiso   1.00
N46    N     0.60724   0.67682   0.95820   0.01267  Uiso   1.00
N47    N     0.60380   0.82192   0.95132   0.01267  Uiso   1.00
N48    N     0.56352   0.48353   0.06707   0.01267  Uiso   1.00
O1     O     0.55824   0.84612   0.57500   0.01267  Uiso   1.00
O2     O     0.75185   0.91758   0.45803   0.01267  Uiso   1.00
O3     O     0.84209   0.26184   0.57897   0.01267  Uiso   1.00
O4     O     0.99937   0.22790   0.61919   0.01267  Uiso   1.00
O5     O     0.89685   0.74311   0.25776   0.01267  Uiso   1.00
O6     O     0.13324   0.57500   0.57888   0.01267  Uiso   1.00
O7     O     0.20988   0.45803   0.62439   0.01267  Uiso   1.00
O8     O     0.42106   0.57897   0.15919   0.01267  Uiso   1.00
O9     O     0.61856   0.61919   0.15291   0.01267  Uiso   1.00
O10    O     0.15461   0.25776   0.99913   0.01267  Uiso   1.00
O11    O     0.71212   0.57888   0.84612   0.01267  Uiso   1.00
O12    O     0.83427   0.62439   0.91758   0.01267  Uiso   1.00
O13    O     0.58025   0.15919   0.26184   0.01267  Uiso   1.00
O14    O     0.77147   0.15291   0.22790   0.01267  Uiso   1.00
O15    O     0.15374   0.99913   0.74311   0.01267  Uiso   1.00
O16    O     0.44176   0.15388   0.42500   0.01267  Uiso   1.00
O17    O     0.24815   0.08242   0.54197   0.01267  Uiso   1.00
O18    O     0.15791   0.73816   0.42103   0.01267  Uiso   1.00
O19    O     0.00063   0.77210   0.38081   0.01267  Uiso   1.00
O20    O     0.10315   0.25689   0.74224   0.01267  Uiso   1.00
O21    O     0.86676   0.42500   0.42112   0.01267  Uiso   1.00
O22    O     0.79012   0.54197   0.37561   0.01267  Uiso   1.00
O23    O     0.57894   0.42103   0.84081   0.01267  Uiso   1.00
O24    O     0.38144   0.38081   0.84709   0.01267  Uiso   1.00
O25    O     0.84539   0.74224   0.00087   0.01267  Uiso   1.00
O26    O     0.28788   0.42112   0.15388   0.01267  Uiso   1.00
O27    O     0.16573   0.37561   0.08242   0.01267  Uiso   1.00
O28    O     0.41975   0.84081   0.73816   0.01267  Uiso   1.00
O29    O     0.22853   0.84709   0.77210   0.01267  Uiso   1.00
O30    O     0.84626   0.00087   0.25689   0.01267  Uiso   1.00
