data_QUQPOI_clean
_audit_creation_date              2014-07-02
_audit_creation_method            'Materials Studio'
_symmetry_space_group_name_H-M    'P1'
_symmetry_Int_Tables_number       1
_symmetry_cell_setting            triclinic
loop_
_symmetry_equiv_pos_as_xyz
  x,y,z
_cell_length_a                    7.3937
_cell_length_b                    10.9623
_cell_length_c                    12.6331
_cell_angle_alpha                 109.5100
_cell_angle_beta                  90.0000
_cell_angle_gamma                 90.0000
loop_
_atom_site_label
_atom_site_type_symbol
_atom_site_fract_x
_atom_site_fract_y
_atom_site_fract_z
_atom_site_U_iso_or_equiv
_atom_site_adp_type
_atom_site_occupancy
Zn1    Zn    0.00000   0.00000   0.00000   0.01267  Uiso   1.00
H1     H     0.22970   0.61020   0.01950   0.01267  Uiso   1.00
H2     H     0.22970   0.38980   0.98050   0.01267  Uiso   1.00
H3     H     0.77030   0.38980   0.98050   0.01267  Uiso   1.00
H4     H     0.77030   0.61020   0.01950   0.01267  Uiso   1.00
H5     H     0.00000   0.96260   0.75000   0.01267  Uiso   1.00
H6     H     0.00000   0.81010   0.57590   0.01267  Uiso   1.00
H7     H     0.00000   0.53800   0.72200   0.01267  Uiso   1.00
H8     H     0.00000   0.70060   0.89620   0.01267  Uiso   1.00
H9     H     0.00000   0.03740   0.25000   0.01267  Uiso   1.00
H10    H     0.00000   0.18990   0.42410   0.01267  Uiso   1.00
H11    H     0.00000   0.46200   0.27800   0.01267  Uiso   1.00
H12    H     0.00000   0.29940   0.10380   0.01267  Uiso   1.00
C1     C     0.34050   0.84531   0.05430   0.01267  Uiso   1.00
C2     C     0.33920   0.56640   0.01190   0.01267  Uiso   1.00
C3     C     0.34050   0.15469   0.94570   0.01267  Uiso   1.00
C4     C     0.33920   0.43360   0.98810   0.01267  Uiso   1.00
C5     C     0.65950   0.15469   0.94570   0.01267  Uiso   1.00
C6     C     0.66080   0.43360   0.98810   0.01267  Uiso   1.00
C7     C     0.65950   0.84531   0.05430   0.01267  Uiso   1.00
C8     C     0.66080   0.56640   0.01190   0.01267  Uiso   1.00
C9     C     0.50000   0.77720   0.04740   0.01267  Uiso   1.00
C10    C     0.50000   0.63560   0.02470   0.01267  Uiso   1.00
C11    C     0.50000   0.22280   0.95260   0.01267  Uiso   1.00
C12    C     0.50000   0.36440   0.97530   0.01267  Uiso   1.00
C13    C     0.00000   0.87580   0.74450   0.01267  Uiso   1.00
C14    C     0.00000   0.78450   0.63910   0.01267  Uiso   1.00
C15    C     0.00000   0.65460   0.62690   0.01267  Uiso   1.00
C16    C     0.00000   0.56200   0.51080   0.01267  Uiso   1.00
C17    C     0.00000   0.62420   0.72590   0.01267  Uiso   1.00
C18    C     0.00000   0.72250   0.83120   0.01267  Uiso   1.00
C19    C     0.00000   0.12420   0.25550   0.01267  Uiso   1.00
C20    C     0.00000   0.21550   0.36090   0.01267  Uiso   1.00
C21    C     0.00000   0.34540   0.37310   0.01267  Uiso   1.00
C22    C     0.00000   0.43800   0.48920   0.01267  Uiso   1.00
C23    C     0.00000   0.37580   0.27410   0.01267  Uiso   1.00
C24    C     0.00000   0.27750   0.16880   0.01267  Uiso   1.00
N1     N     0.20580   0.90083   0.06020   0.01267  Uiso   1.00
N2     N     0.20580   0.09917   0.93980   0.01267  Uiso   1.00
N3     N     0.79420   0.09917   0.93980   0.01267  Uiso   1.00
N4     N     0.79420   0.90083   0.06020   0.01267  Uiso   1.00
N5     N     0.00000   0.84800   0.83930   0.01267  Uiso   1.00
N6     N     0.00000   0.15200   0.16070   0.01267  Uiso   1.00
