data_QUQPIC_clean
_audit_creation_date              2014-07-02
_audit_creation_method            'Materials Studio'
_symmetry_space_group_name_H-M    'P1'
_symmetry_Int_Tables_number       1
_symmetry_cell_setting            triclinic
loop_
_symmetry_equiv_pos_as_xyz
  x,y,z
_cell_length_a                    12.3464
_cell_length_b                    12.4871
_cell_length_c                    14.0082
_cell_angle_alpha                 90.0000
_cell_angle_beta                  113.7630
_cell_angle_gamma                 90.0000
loop_
_atom_site_label
_atom_site_type_symbol
_atom_site_fract_x
_atom_site_fract_y
_atom_site_fract_z
_atom_site_U_iso_or_equiv
_atom_site_adp_type
_atom_site_occupancy
Cd1    Cd    0.00000   0.00000   0.00000   0.01267  Uiso   1.00
Cd2    Cd    0.50000   0.50000   0.00000   0.01267  Uiso   1.00
H1     H     0.87700   0.00300   0.46900   0.01267  Uiso   1.00
H2     H     0.65940   0.04370   0.96100   0.01267  Uiso   1.00
H3     H     0.47120   0.82580   0.03830   0.01267  Uiso   1.00
H4     H     0.79820   0.02370   0.59490   0.01267  Uiso   1.00
H5     H     0.82020   0.02210   0.76630   0.01267  Uiso   1.00
H6     H     0.15500   0.96820   0.86230   0.01267  Uiso   1.00
H7     H     0.14260   0.96790   0.69510   0.01267  Uiso   1.00
H8     H     0.62300   0.50300   0.53100   0.01267  Uiso   1.00
H9     H     0.84060   0.54370   0.03900   0.01267  Uiso   1.00
H10    H     0.02880   0.32580   0.96170   0.01267  Uiso   1.00
H11    H     0.70180   0.52370   0.40510   0.01267  Uiso   1.00
H12    H     0.67980   0.52210   0.23370   0.01267  Uiso   1.00
H13    H     0.34500   0.46820   0.13770   0.01267  Uiso   1.00
H14    H     0.35740   0.46790   0.30490   0.01267  Uiso   1.00
H15    H     0.12300   0.99700   0.53100   0.01267  Uiso   1.00
H16    H     0.34060   0.95630   0.03900   0.01267  Uiso   1.00
H17    H     0.52880   0.17420   0.96170   0.01267  Uiso   1.00
H18    H     0.20180   0.97630   0.40510   0.01267  Uiso   1.00
H19    H     0.17980   0.97790   0.23370   0.01267  Uiso   1.00
H20    H     0.84500   0.03180   0.13770   0.01267  Uiso   1.00
H21    H     0.85740   0.03210   0.30490   0.01267  Uiso   1.00
H22    H     0.37700   0.49700   0.46900   0.01267  Uiso   1.00
H23    H     0.15940   0.45630   0.96100   0.01267  Uiso   1.00
H24    H     0.97120   0.67420   0.03830   0.01267  Uiso   1.00
H25    H     0.29820   0.47630   0.59490   0.01267  Uiso   1.00
H26    H     0.32020   0.47790   0.76630   0.01267  Uiso   1.00
H27    H     0.65500   0.53180   0.86230   0.01267  Uiso   1.00
H28    H     0.64260   0.53210   0.69510   0.01267  Uiso   1.00
C1     C     0.59520   0.02560   0.97650   0.01267  Uiso   1.00
C2     C     0.64800   0.72950   0.02250   0.01267  Uiso   1.00
C3     C     0.75950   0.86020   0.97360   0.01267  Uiso   1.00
C4     C     0.48290   0.89600   0.02250   0.01267  Uiso   1.00
C5     C     0.87240   0.01270   0.64820   0.01267  Uiso   1.00
C6     C     0.97120   0.99750   0.62550   0.01267  Uiso   1.00
C7     C     0.88670   0.01140   0.75200   0.01267  Uiso   1.00
C8     C     0.08170   0.98000   0.80790   0.01267  Uiso   1.00
C9     C     0.66310   0.83500   0.99780   0.01267  Uiso   1.00
C10    C     0.07470   0.98010   0.70690   0.01267  Uiso   1.00
C11    C     0.57880   0.91980   0.99840   0.01267  Uiso   1.00
C12    C     0.95720   0.00230   0.51530   0.01267  Uiso   1.00
C13    C     0.90480   0.52560   0.02350   0.01267  Uiso   1.00
C14    C     0.85200   0.22950   0.97750   0.01267  Uiso   1.00
C15    C     0.74050   0.36020   0.02640   0.01267  Uiso   1.00
C16    C     0.01710   0.39600   0.97750   0.01267  Uiso   1.00
C17    C     0.62760   0.51270   0.35180   0.01267  Uiso   1.00
C18    C     0.52880   0.49750   0.37450   0.01267  Uiso   1.00
C19    C     0.61330   0.51140   0.24800   0.01267  Uiso   1.00
C20    C     0.41830   0.48000   0.19210   0.01267  Uiso   1.00
C21    C     0.83690   0.33500   0.00220   0.01267  Uiso   1.00
C22    C     0.42530   0.48010   0.29310   0.01267  Uiso   1.00
C23    C     0.92120   0.41980   0.00160   0.01267  Uiso   1.00
C24    C     0.54280   0.50230   0.48470   0.01267  Uiso   1.00
C25    C     0.40480   0.97440   0.02350   0.01267  Uiso   1.00
C26    C     0.35200   0.27050   0.97750   0.01267  Uiso   1.00
C27    C     0.24050   0.13980   0.02640   0.01267  Uiso   1.00
C28    C     0.51710   0.10400   0.97750   0.01267  Uiso   1.00
C29    C     0.12760   0.98730   0.35180   0.01267  Uiso   1.00
C30    C     0.02880   0.00250   0.37450   0.01267  Uiso   1.00
C31    C     0.11330   0.98860   0.24800   0.01267  Uiso   1.00
C32    C     0.91830   0.02000   0.19210   0.01267  Uiso   1.00
C33    C     0.33690   0.16500   0.00220   0.01267  Uiso   1.00
C34    C     0.92530   0.01990   0.29310   0.01267  Uiso   1.00
C35    C     0.42120   0.08020   0.00160   0.01267  Uiso   1.00
C36    C     0.04280   0.99770   0.48470   0.01267  Uiso   1.00
C37    C     0.09520   0.47440   0.97650   0.01267  Uiso   1.00
C38    C     0.14800   0.77050   0.02250   0.01267  Uiso   1.00
C39    C     0.25950   0.63980   0.97360   0.01267  Uiso   1.00
C40    C     0.98290   0.60400   0.02250   0.01267  Uiso   1.00
C41    C     0.37240   0.48730   0.64820   0.01267  Uiso   1.00
C42    C     0.47120   0.50250   0.62550   0.01267  Uiso   1.00
C43    C     0.38670   0.48860   0.75200   0.01267  Uiso   1.00
C44    C     0.58170   0.52000   0.80790   0.01267  Uiso   1.00
C45    C     0.16310   0.66500   0.99780   0.01267  Uiso   1.00
C46    C     0.57470   0.51990   0.70690   0.01267  Uiso   1.00
C47    C     0.07880   0.58020   0.99840   0.01267  Uiso   1.00
C48    C     0.45720   0.49770   0.51530   0.01267  Uiso   1.00
N1     N     0.98870   0.99580   0.83070   0.01267  Uiso   1.00
N2     N     0.83780   0.88650   0.95190   0.01267  Uiso   1.00
N3     N     0.63220   0.64380   0.04510   0.01267  Uiso   1.00
N4     N     0.51130   0.49580   0.16930   0.01267  Uiso   1.00
N5     N     0.66220   0.38650   0.04810   0.01267  Uiso   1.00
N6     N     0.86780   0.14380   0.95490   0.01267  Uiso   1.00
N7     N     0.01130   0.00420   0.16930   0.01267  Uiso   1.00
N8     N     0.16220   0.11350   0.04810   0.01267  Uiso   1.00
N9     N     0.36780   0.35620   0.95490   0.01267  Uiso   1.00
N10    N     0.48870   0.50420   0.83070   0.01267  Uiso   1.00
N11    N     0.33780   0.61350   0.95190   0.01267  Uiso   1.00
N12    N     0.13220   0.85620   0.04510   0.01267  Uiso   1.00
