data_RATCUL02_clean
_audit_creation_date              2014-07-02
_audit_creation_method            'Materials Studio'
_symmetry_space_group_name_H-M    'P1'
_symmetry_Int_Tables_number       1
_symmetry_cell_setting            triclinic
loop_
_symmetry_equiv_pos_as_xyz
  x,y,z
_cell_length_a                    9.9777
_cell_length_b                    11.4694
_cell_length_c                    14.6144
_cell_angle_alpha                 91.1850
_cell_angle_beta                  90.0000
_cell_angle_gamma                 90.0000
loop_
_atom_site_label
_atom_site_type_symbol
_atom_site_fract_x
_atom_site_fract_y
_atom_site_fract_z
_atom_site_U_iso_or_equiv
_atom_site_adp_type
_atom_site_occupancy
Fe1    Fe    0.92277   0.75505   0.13292   0.01267  Uiso   1.00
Fe2    Fe    0.88791   0.26000   0.68831   0.01267  Uiso   1.00
Fe3    Fe    0.42277   0.74495   0.36708   0.01267  Uiso   1.00
Fe4    Fe    0.38791   0.24000   0.81169   0.01267  Uiso   1.00
Fe5    Fe    0.07723   0.24495   0.86708   0.01267  Uiso   1.00
Fe6    Fe    0.11209   0.74000   0.31169   0.01267  Uiso   1.00
Fe7    Fe    0.57723   0.25505   0.63292   0.01267  Uiso   1.00
Fe8    Fe    0.61209   0.76000   0.18831   0.01267  Uiso   1.00
Fe9    Fe    0.00000   0.50000   0.00000   0.01267  Uiso   1.00
Fe10   Fe    0.50000   0.00000   0.50000   0.01267  Uiso   1.00
Fe11   Fe    0.00000   0.00000   0.00000   0.01267  Uiso   1.00
Fe12   Fe    0.50000   0.50000   0.50000   0.01267  Uiso   1.00
H1     H     0.75300   0.85510   0.36810   0.01267  Uiso   1.00
H2     H     0.03400   0.47710   0.26510   0.01267  Uiso   1.00
H3     H     0.61400   0.56300   0.04200   0.01267  Uiso   1.00
H4     H     0.20100   0.97800   0.23400   0.01267  Uiso   1.00
H5     H     0.15100   0.69790   0.92490   0.01267  Uiso   1.00
H6     H     0.70400   0.99300   0.00800   0.01267  Uiso   1.00
H7     H     0.25300   0.64490   0.13190   0.01267  Uiso   1.00
H8     H     0.53400   0.02290   0.23490   0.01267  Uiso   1.00
H9     H     0.11400   0.93700   0.45800   0.01267  Uiso   1.00
H10    H     0.70100   0.52200   0.26600   0.01267  Uiso   1.00
H11    H     0.65100   0.80210   0.57510   0.01267  Uiso   1.00
H12    H     0.20400   0.50700   0.49200   0.01267  Uiso   1.00
H13    H     0.24700   0.14490   0.63190   0.01267  Uiso   1.00
H14    H     0.96600   0.52290   0.73490   0.01267  Uiso   1.00
H15    H     0.38600   0.43700   0.95800   0.01267  Uiso   1.00
H16    H     0.79900   0.02200   0.76600   0.01267  Uiso   1.00
H17    H     0.84900   0.30210   0.07510   0.01267  Uiso   1.00
H18    H     0.29600   0.00700   0.99200   0.01267  Uiso   1.00
H19    H     0.74700   0.35510   0.86810   0.01267  Uiso   1.00
H20    H     0.46600   0.97710   0.76510   0.01267  Uiso   1.00
H21    H     0.88600   0.06300   0.54200   0.01267  Uiso   1.00
H22    H     0.29900   0.47800   0.73400   0.01267  Uiso   1.00
H23    H     0.34900   0.19790   0.42490   0.01267  Uiso   1.00
H24    H     0.79600   0.49300   0.50800   0.01267  Uiso   1.00
C1     C     0.82950   0.82765   0.33135   0.01267  Uiso   1.00
C2     C     0.01710   0.51805   0.21095   0.01267  Uiso   1.00
C3     C     0.71310   0.57595   0.04675   0.01267  Uiso   1.00
C4     C     0.13160   0.95237   0.18657   0.01267  Uiso   1.00
C5     C     0.10210   0.74379   0.96719   0.01267  Uiso   1.00
C6     C     0.72310   0.92947   0.05147   0.01267  Uiso   1.00
C7     C     0.32950   0.67235   0.16865   0.01267  Uiso   1.00
C8     C     0.51710   0.98195   0.28905   0.01267  Uiso   1.00
C9     C     0.21310   0.92405   0.45325   0.01267  Uiso   1.00
C10    C     0.63160   0.54763   0.31343   0.01267  Uiso   1.00
C11    C     0.60210   0.75621   0.53281   0.01267  Uiso   1.00
C12    C     0.22310   0.57053   0.44853   0.01267  Uiso   1.00
C13    C     0.17050   0.17235   0.66865   0.01267  Uiso   1.00
C14    C     0.98290   0.48195   0.78905   0.01267  Uiso   1.00
C15    C     0.28690   0.42405   0.95325   0.01267  Uiso   1.00
C16    C     0.86840   0.04763   0.81343   0.01267  Uiso   1.00
C17    C     0.89790   0.25621   0.03281   0.01267  Uiso   1.00
C18    C     0.27690   0.07053   0.94853   0.01267  Uiso   1.00
C19    C     0.67050   0.32765   0.83135   0.01267  Uiso   1.00
C20    C     0.48290   0.01805   0.71095   0.01267  Uiso   1.00
C21    C     0.78690   0.07595   0.54675   0.01267  Uiso   1.00
C22    C     0.36840   0.45237   0.68657   0.01267  Uiso   1.00
C23    C     0.39790   0.24379   0.46719   0.01267  Uiso   1.00
C24    C     0.77690   0.42947   0.55147   0.01267  Uiso   1.00
O1     O     0.80225   0.80500   0.24755   0.01267  Uiso   1.00
O2     O     0.93973   0.81421   0.36855   0.01267  Uiso   1.00
O3     O     0.00842   0.62746   0.21862   0.01267  Uiso   1.00
O4     O     0.99978   0.45907   0.14077   0.01267  Uiso   1.00
O5     O     0.74449   0.65243   0.10728   0.01267  Uiso   1.00
O6     O     0.79165   0.51803   0.99864   0.01267  Uiso   1.00
O7     O     0.08476   0.85050   0.19637   0.01267  Uiso   1.00
O8     O     0.10584   0.01879   0.12381   0.01267  Uiso   1.00
O9     O     0.02719   0.68594   0.02206   0.01267  Uiso   1.00
O10    O     0.10947   0.85006   0.96316   0.01267  Uiso   1.00
O11    O     0.84468   0.89745   0.06141   0.01267  Uiso   1.00
O12    O     0.62454   0.88893   0.09176   0.01267  Uiso   1.00
O13    O     0.30225   0.69500   0.25245   0.01267  Uiso   1.00
O14    O     0.43973   0.68579   0.13145   0.01267  Uiso   1.00
O15    O     0.50842   0.87254   0.28138   0.01267  Uiso   1.00
O16    O     0.49978   0.04093   0.35923   0.01267  Uiso   1.00
O17    O     0.24449   0.84757   0.39272   0.01267  Uiso   1.00
O18    O     0.29165   0.98197   0.50136   0.01267  Uiso   1.00
O19    O     0.58476   0.64950   0.30363   0.01267  Uiso   1.00
O20    O     0.60584   0.48121   0.37619   0.01267  Uiso   1.00
O21    O     0.52719   0.81406   0.47794   0.01267  Uiso   1.00
O22    O     0.60947   0.64994   0.53684   0.01267  Uiso   1.00
O23    O     0.34468   0.60255   0.43859   0.01267  Uiso   1.00
O24    O     0.12454   0.61107   0.40824   0.01267  Uiso   1.00
O25    O     0.19775   0.19500   0.75245   0.01267  Uiso   1.00
O26    O     0.06027   0.18579   0.63145   0.01267  Uiso   1.00
O27    O     0.99158   0.37254   0.78138   0.01267  Uiso   1.00
O28    O     0.00022   0.54093   0.85923   0.01267  Uiso   1.00
O29    O     0.25551   0.34757   0.89272   0.01267  Uiso   1.00
O30    O     0.20835   0.48197   0.00136   0.01267  Uiso   1.00
O31    O     0.91524   0.14950   0.80363   0.01267  Uiso   1.00
O32    O     0.89416   0.98121   0.87619   0.01267  Uiso   1.00
O33    O     0.97281   0.31406   0.97794   0.01267  Uiso   1.00
O34    O     0.89053   0.14994   0.03684   0.01267  Uiso   1.00
O35    O     0.15532   0.10255   0.93859   0.01267  Uiso   1.00
O36    O     0.37546   0.11107   0.90824   0.01267  Uiso   1.00
O37    O     0.69775   0.30500   0.74755   0.01267  Uiso   1.00
O38    O     0.56027   0.31421   0.86855   0.01267  Uiso   1.00
O39    O     0.49158   0.12746   0.71862   0.01267  Uiso   1.00
O40    O     0.50022   0.95907   0.64077   0.01267  Uiso   1.00
O41    O     0.75551   0.15243   0.60728   0.01267  Uiso   1.00
O42    O     0.70835   0.01803   0.49864   0.01267  Uiso   1.00
O43    O     0.41524   0.35050   0.69637   0.01267  Uiso   1.00
O44    O     0.39416   0.51879   0.62381   0.01267  Uiso   1.00
O45    O     0.47281   0.18594   0.52206   0.01267  Uiso   1.00
O46    O     0.39053   0.35006   0.46316   0.01267  Uiso   1.00
O47    O     0.65532   0.39745   0.56141   0.01267  Uiso   1.00
O48    O     0.87546   0.38893   0.59176   0.01267  Uiso   1.00
