data_REFTON_clean
_audit_creation_date              2014-07-02
_audit_creation_method            'Materials Studio'
_symmetry_space_group_name_H-M    'P1'
_symmetry_Int_Tables_number       1
_symmetry_cell_setting            triclinic
loop_
_symmetry_equiv_pos_as_xyz
  x,y,z
_cell_length_a                    7.3077
_cell_length_b                    18.8151
_cell_length_c                    23.3444
_cell_angle_alpha                 90.0000
_cell_angle_beta                  90.0000
_cell_angle_gamma                 90.0000
loop_
_atom_site_label
_atom_site_type_symbol
_atom_site_fract_x
_atom_site_fract_y
_atom_site_fract_z
_atom_site_U_iso_or_equiv
_atom_site_adp_type
_atom_site_occupancy
Zn1    Zn    0.84966   0.54868   0.91321   0.01267  Uiso   1.00
Zn2    Zn    0.65034   0.04868   0.08679   0.01267  Uiso   1.00
Zn3    Zn    0.15034   0.45132   0.41321   0.01267  Uiso   1.00
Zn4    Zn    0.34966   0.95132   0.58679   0.01267  Uiso   1.00
Zn5    Zn    0.15034   0.45132   0.08679   0.01267  Uiso   1.00
Zn6    Zn    0.34966   0.95132   0.91321   0.01267  Uiso   1.00
Zn7    Zn    0.84966   0.54868   0.58679   0.01267  Uiso   1.00
Zn8    Zn    0.65034   0.04868   0.41321   0.01267  Uiso   1.00
Cd1    Cd    0.50000   0.50000   0.00000   0.01267  Uiso   1.00
Cd2    Cd    0.00000   0.00000   0.00000   0.01267  Uiso   1.00
Cd3    Cd    0.50000   0.50000   0.50000   0.01267  Uiso   1.00
Cd4    Cd    0.00000   0.00000   0.50000   0.01267  Uiso   1.00
H1     H     0.77170   0.29390   0.02570   0.01267  Uiso   1.00
H2     H     0.98870   0.33370   0.87110   0.01267  Uiso   1.00
H3     H     0.91190   0.13270   0.92140   0.01267  Uiso   1.00
H4     H     0.92610   0.19510   0.80450   0.01267  Uiso   1.00
H5     H     0.10760   0.23840   0.81270   0.01267  Uiso   1.00
H6     H     0.09530   0.15960   0.83420   0.01267  Uiso   1.00
H7     H     0.19000   0.44980   0.83580   0.01267  Uiso   1.00
H8     H     0.89050   0.43960   0.77530   0.01267  Uiso   1.00
H9     H     0.72830   0.79390   0.97430   0.01267  Uiso   1.00
H10    H     0.51130   0.83370   0.12890   0.01267  Uiso   1.00
H11    H     0.58810   0.63270   0.07860   0.01267  Uiso   1.00
H12    H     0.57390   0.69510   0.19550   0.01267  Uiso   1.00
H13    H     0.39240   0.73840   0.18730   0.01267  Uiso   1.00
H14    H     0.40470   0.65960   0.16580   0.01267  Uiso   1.00
H15    H     0.31000   0.94980   0.16420   0.01267  Uiso   1.00
H16    H     0.60950   0.93960   0.22470   0.01267  Uiso   1.00
H17    H     0.22830   0.70610   0.52570   0.01267  Uiso   1.00
H18    H     0.01130   0.66630   0.37110   0.01267  Uiso   1.00
H19    H     0.08810   0.86730   0.42140   0.01267  Uiso   1.00
H20    H     0.07390   0.80490   0.30450   0.01267  Uiso   1.00
H21    H     0.89240   0.76160   0.31270   0.01267  Uiso   1.00
H22    H     0.90470   0.84040   0.33420   0.01267  Uiso   1.00
H23    H     0.81000   0.55020   0.33580   0.01267  Uiso   1.00
H24    H     0.10950   0.56040   0.27530   0.01267  Uiso   1.00
H25    H     0.27170   0.20610   0.47430   0.01267  Uiso   1.00
H26    H     0.48870   0.16630   0.62890   0.01267  Uiso   1.00
H27    H     0.41190   0.36730   0.57860   0.01267  Uiso   1.00
H28    H     0.42610   0.30490   0.69550   0.01267  Uiso   1.00
H29    H     0.60760   0.26160   0.68730   0.01267  Uiso   1.00
H30    H     0.59530   0.34040   0.66580   0.01267  Uiso   1.00
H31    H     0.69000   0.05020   0.66420   0.01267  Uiso   1.00
H32    H     0.39050   0.06040   0.72470   0.01267  Uiso   1.00
H33    H     0.22830   0.70610   0.97430   0.01267  Uiso   1.00
H34    H     0.01130   0.66630   0.12890   0.01267  Uiso   1.00
H35    H     0.08810   0.86730   0.07860   0.01267  Uiso   1.00
H36    H     0.07390   0.80490   0.19550   0.01267  Uiso   1.00
H37    H     0.89240   0.76160   0.18730   0.01267  Uiso   1.00
H38    H     0.90470   0.84040   0.16580   0.01267  Uiso   1.00
H39    H     0.81000   0.55020   0.16420   0.01267  Uiso   1.00
H40    H     0.10950   0.56040   0.22470   0.01267  Uiso   1.00
H41    H     0.27170   0.20610   0.02570   0.01267  Uiso   1.00
H42    H     0.48870   0.16630   0.87110   0.01267  Uiso   1.00
H43    H     0.41190   0.36730   0.92140   0.01267  Uiso   1.00
H44    H     0.42610   0.30490   0.80450   0.01267  Uiso   1.00
H45    H     0.60760   0.26160   0.81270   0.01267  Uiso   1.00
H46    H     0.59530   0.34040   0.83420   0.01267  Uiso   1.00
H47    H     0.69000   0.05020   0.83580   0.01267  Uiso   1.00
H48    H     0.39050   0.06040   0.77530   0.01267  Uiso   1.00
H49    H     0.77170   0.29390   0.47430   0.01267  Uiso   1.00
H50    H     0.98870   0.33370   0.62890   0.01267  Uiso   1.00
H51    H     0.91190   0.13270   0.57860   0.01267  Uiso   1.00
H52    H     0.92610   0.19510   0.69550   0.01267  Uiso   1.00
H53    H     0.10760   0.23840   0.68730   0.01267  Uiso   1.00
H54    H     0.09530   0.15960   0.66580   0.01267  Uiso   1.00
H55    H     0.19000   0.44980   0.66420   0.01267  Uiso   1.00
H56    H     0.89050   0.43960   0.72470   0.01267  Uiso   1.00
H57    H     0.72830   0.79390   0.52570   0.01267  Uiso   1.00
H58    H     0.51130   0.83370   0.37110   0.01267  Uiso   1.00
H59    H     0.58810   0.63270   0.42140   0.01267  Uiso   1.00
H60    H     0.57390   0.69510   0.30450   0.01267  Uiso   1.00
H61    H     0.39240   0.73840   0.31270   0.01267  Uiso   1.00
H62    H     0.40470   0.65960   0.33420   0.01267  Uiso   1.00
H63    H     0.31000   0.94980   0.33580   0.01267  Uiso   1.00
H64    H     0.60950   0.93960   0.27530   0.01267  Uiso   1.00
H65    H     0.61730   0.53100   0.75000   0.01267  Uiso   1.00
H66    H     0.88270   0.03100   0.25000   0.01267  Uiso   1.00
H67    H     0.38270   0.46900   0.25000   0.01267  Uiso   1.00
H68    H     0.11730   0.96900   0.75000   0.01267  Uiso   1.00
C1     C     0.82040   0.27772   0.99131   0.01267  Uiso   1.00
C2     C     0.87320   0.32588   0.94966   0.01267  Uiso   1.00
C3     C     0.94770   0.30118   0.89820   0.01267  Uiso   1.00
C4     C     0.83470   0.40385   0.95748   0.01267  Uiso   1.00
C5     C     0.77980   0.15490   0.02685   0.01267  Uiso   1.00
C6     C     0.84050   0.20488   0.98165   0.01267  Uiso   1.00
C7     C     0.90570   0.18126   0.92872   0.01267  Uiso   1.00
C8     C     0.96140   0.22900   0.88692   0.01267  Uiso   1.00
C9     C     0.02880   0.20315   0.82933   0.01267  Uiso   1.00
C10    C     0.51600   0.51001   0.85656   0.01267  Uiso   1.00
C11    C     0.41930   0.49255   0.80151   0.01267  Uiso   1.00
C12    C     0.24670   0.46073   0.80122   0.01267  Uiso   1.00
C13    C     0.67960   0.77772   0.00869   0.01267  Uiso   1.00
C14    C     0.62680   0.82588   0.05034   0.01267  Uiso   1.00
C15    C     0.55230   0.80118   0.10180   0.01267  Uiso   1.00
C16    C     0.66530   0.90385   0.04252   0.01267  Uiso   1.00
C17    C     0.72020   0.65490   0.97315   0.01267  Uiso   1.00
C18    C     0.65950   0.70488   0.01835   0.01267  Uiso   1.00
C19    C     0.59430   0.68126   0.07128   0.01267  Uiso   1.00
C20    C     0.53860   0.72900   0.11308   0.01267  Uiso   1.00
C21    C     0.47120   0.70315   0.17067   0.01267  Uiso   1.00
C22    C     0.98400   0.01001   0.14344   0.01267  Uiso   1.00
C23    C     0.08070   0.99255   0.19849   0.01267  Uiso   1.00
C24    C     0.25330   0.96073   0.19878   0.01267  Uiso   1.00
C25    C     0.17960   0.72228   0.49131   0.01267  Uiso   1.00
C26    C     0.12680   0.67412   0.44966   0.01267  Uiso   1.00
C27    C     0.05230   0.69882   0.39820   0.01267  Uiso   1.00
C28    C     0.16530   0.59615   0.45748   0.01267  Uiso   1.00
C29    C     0.22020   0.84510   0.52685   0.01267  Uiso   1.00
C30    C     0.15950   0.79512   0.48165   0.01267  Uiso   1.00
C31    C     0.09430   0.81874   0.42872   0.01267  Uiso   1.00
C32    C     0.03860   0.77100   0.38692   0.01267  Uiso   1.00
C33    C     0.97120   0.79685   0.32933   0.01267  Uiso   1.00
C34    C     0.48400   0.48999   0.35656   0.01267  Uiso   1.00
C35    C     0.58070   0.50745   0.30151   0.01267  Uiso   1.00
C36    C     0.75330   0.53927   0.30122   0.01267  Uiso   1.00
C37    C     0.32040   0.22228   0.50869   0.01267  Uiso   1.00
C38    C     0.37320   0.17412   0.55034   0.01267  Uiso   1.00
C39    C     0.44770   0.19882   0.60180   0.01267  Uiso   1.00
C40    C     0.33470   0.09615   0.54252   0.01267  Uiso   1.00
C41    C     0.27980   0.34510   0.47315   0.01267  Uiso   1.00
C42    C     0.34050   0.29512   0.51835   0.01267  Uiso   1.00
C43    C     0.40570   0.31874   0.57128   0.01267  Uiso   1.00
C44    C     0.46140   0.27100   0.61308   0.01267  Uiso   1.00
C45    C     0.52880   0.29685   0.67067   0.01267  Uiso   1.00
C46    C     0.01600   0.98999   0.64344   0.01267  Uiso   1.00
C47    C     0.91930   0.00745   0.69849   0.01267  Uiso   1.00
C48    C     0.74670   0.03927   0.69878   0.01267  Uiso   1.00
C49    C     0.17960   0.72228   0.00869   0.01267  Uiso   1.00
C50    C     0.12680   0.67412   0.05034   0.01267  Uiso   1.00
C51    C     0.05230   0.69882   0.10180   0.01267  Uiso   1.00
C52    C     0.16530   0.59615   0.04252   0.01267  Uiso   1.00
C53    C     0.22020   0.84510   0.97315   0.01267  Uiso   1.00
C54    C     0.15950   0.79512   0.01835   0.01267  Uiso   1.00
C55    C     0.09430   0.81874   0.07128   0.01267  Uiso   1.00
C56    C     0.03860   0.77100   0.11308   0.01267  Uiso   1.00
C57    C     0.97120   0.79685   0.17067   0.01267  Uiso   1.00
C58    C     0.48400   0.48999   0.14344   0.01267  Uiso   1.00
C59    C     0.58070   0.50745   0.19849   0.01267  Uiso   1.00
C60    C     0.75330   0.53927   0.19878   0.01267  Uiso   1.00
C61    C     0.32040   0.22228   0.99131   0.01267  Uiso   1.00
C62    C     0.37320   0.17412   0.94966   0.01267  Uiso   1.00
C63    C     0.44770   0.19882   0.89820   0.01267  Uiso   1.00
C64    C     0.33470   0.09615   0.95748   0.01267  Uiso   1.00
C65    C     0.27980   0.34510   0.02685   0.01267  Uiso   1.00
C66    C     0.34050   0.29512   0.98165   0.01267  Uiso   1.00
C67    C     0.40570   0.31874   0.92872   0.01267  Uiso   1.00
C68    C     0.46140   0.27100   0.88692   0.01267  Uiso   1.00
C69    C     0.52880   0.29685   0.82933   0.01267  Uiso   1.00
C70    C     0.01600   0.98999   0.85656   0.01267  Uiso   1.00
C71    C     0.91930   0.00745   0.80151   0.01267  Uiso   1.00
C72    C     0.74670   0.03927   0.80122   0.01267  Uiso   1.00
C73    C     0.82040   0.27772   0.50869   0.01267  Uiso   1.00
C74    C     0.87320   0.32588   0.55034   0.01267  Uiso   1.00
C75    C     0.94770   0.30118   0.60180   0.01267  Uiso   1.00
C76    C     0.83470   0.40385   0.54252   0.01267  Uiso   1.00
C77    C     0.77980   0.15490   0.47315   0.01267  Uiso   1.00
C78    C     0.84050   0.20488   0.51835   0.01267  Uiso   1.00
C79    C     0.90570   0.18126   0.57128   0.01267  Uiso   1.00
C80    C     0.96140   0.22900   0.61308   0.01267  Uiso   1.00
C81    C     0.02880   0.20315   0.67067   0.01267  Uiso   1.00
C82    C     0.51600   0.51001   0.64344   0.01267  Uiso   1.00
C83    C     0.41930   0.49255   0.69849   0.01267  Uiso   1.00
C84    C     0.24670   0.46073   0.69878   0.01267  Uiso   1.00
C85    C     0.67960   0.77772   0.49131   0.01267  Uiso   1.00
C86    C     0.62680   0.82588   0.44966   0.01267  Uiso   1.00
C87    C     0.55230   0.80118   0.39820   0.01267  Uiso   1.00
C88    C     0.66530   0.90385   0.45748   0.01267  Uiso   1.00
C89    C     0.72020   0.65490   0.52685   0.01267  Uiso   1.00
C90    C     0.65950   0.70488   0.48165   0.01267  Uiso   1.00
C91    C     0.59430   0.68126   0.42872   0.01267  Uiso   1.00
C92    C     0.53860   0.72900   0.38692   0.01267  Uiso   1.00
C93    C     0.47120   0.70315   0.32933   0.01267  Uiso   1.00
C94    C     0.98400   0.01001   0.35656   0.01267  Uiso   1.00
C95    C     0.08070   0.99255   0.30151   0.01267  Uiso   1.00
C96    C     0.25330   0.96073   0.30122   0.01267  Uiso   1.00
C97    C     0.50350   0.50890   0.75000   0.01267  Uiso   1.00
C98    C     0.15870   0.44520   0.75000   0.01267  Uiso   1.00
C99    C     0.96800   0.41300   0.75000   0.01267  Uiso   1.00
C100   C     0.99650   0.00890   0.25000   0.01267  Uiso   1.00
C101   C     0.34130   0.94520   0.25000   0.01267  Uiso   1.00
C102   C     0.53200   0.91300   0.25000   0.01267  Uiso   1.00
C103   C     0.49650   0.49110   0.25000   0.01267  Uiso   1.00
C104   C     0.84130   0.55480   0.25000   0.01267  Uiso   1.00
C105   C     0.03200   0.58700   0.25000   0.01267  Uiso   1.00
C106   C     0.00350   0.99110   0.75000   0.01267  Uiso   1.00
C107   C     0.65870   0.05480   0.75000   0.01267  Uiso   1.00
C108   C     0.46800   0.08700   0.75000   0.01267  Uiso   1.00
O1     O     0.72710   0.42107   0.99695   0.01267  Uiso   1.00
O2     O     0.90720   0.44630   0.92265   0.01267  Uiso   1.00
O3     O     0.77340   0.08713   0.01563   0.01267  Uiso   1.00
O4     O     0.73050   0.17657   0.07432   0.01267  Uiso   1.00
O5     O     0.44020   0.49600   0.90294   0.01267  Uiso   1.00
O6     O     0.67300   0.53781   0.85084   0.01267  Uiso   1.00
O7     O     0.77290   0.92107   0.00305   0.01267  Uiso   1.00
O8     O     0.59280   0.94630   0.07735   0.01267  Uiso   1.00
O9     O     0.72660   0.58713   0.98437   0.01267  Uiso   1.00
O10    O     0.76950   0.67657   0.92568   0.01267  Uiso   1.00
O11    O     0.05980   0.99600   0.09706   0.01267  Uiso   1.00
O12    O     0.82700   0.03781   0.14916   0.01267  Uiso   1.00
O13    O     0.27290   0.57893   0.49695   0.01267  Uiso   1.00
O14    O     0.09280   0.55370   0.42265   0.01267  Uiso   1.00
O15    O     0.22660   0.91287   0.51563   0.01267  Uiso   1.00
O16    O     0.26950   0.82343   0.57432   0.01267  Uiso   1.00
O17    O     0.55980   0.50400   0.40294   0.01267  Uiso   1.00
O18    O     0.32700   0.46219   0.35084   0.01267  Uiso   1.00
O19    O     0.22710   0.07893   0.50305   0.01267  Uiso   1.00
O20    O     0.40720   0.05370   0.57735   0.01267  Uiso   1.00
O21    O     0.27340   0.41287   0.48437   0.01267  Uiso   1.00
O22    O     0.23050   0.32343   0.42568   0.01267  Uiso   1.00
O23    O     0.94020   0.00400   0.59706   0.01267  Uiso   1.00
O24    O     0.17300   0.96219   0.64916   0.01267  Uiso   1.00
O25    O     0.27290   0.57893   0.00305   0.01267  Uiso   1.00
O26    O     0.09280   0.55370   0.07735   0.01267  Uiso   1.00
O27    O     0.22660   0.91287   0.98437   0.01267  Uiso   1.00
O28    O     0.26950   0.82343   0.92568   0.01267  Uiso   1.00
O29    O     0.55980   0.50400   0.09706   0.01267  Uiso   1.00
O30    O     0.32700   0.46219   0.14916   0.01267  Uiso   1.00
O31    O     0.22710   0.07893   0.99695   0.01267  Uiso   1.00
O32    O     0.40720   0.05370   0.92265   0.01267  Uiso   1.00
O33    O     0.27340   0.41287   0.01563   0.01267  Uiso   1.00
O34    O     0.23050   0.32343   0.07432   0.01267  Uiso   1.00
O35    O     0.94020   0.00400   0.90294   0.01267  Uiso   1.00
O36    O     0.17300   0.96219   0.85084   0.01267  Uiso   1.00
O37    O     0.72710   0.42107   0.50305   0.01267  Uiso   1.00
O38    O     0.90720   0.44630   0.57735   0.01267  Uiso   1.00
O39    O     0.77340   0.08713   0.48437   0.01267  Uiso   1.00
O40    O     0.73050   0.17657   0.42568   0.01267  Uiso   1.00
O41    O     0.44020   0.49600   0.59706   0.01267  Uiso   1.00
O42    O     0.67300   0.53781   0.64916   0.01267  Uiso   1.00
O43    O     0.77290   0.92107   0.49695   0.01267  Uiso   1.00
O44    O     0.59280   0.94630   0.42265   0.01267  Uiso   1.00
O45    O     0.72660   0.58713   0.51563   0.01267  Uiso   1.00
O46    O     0.76950   0.67657   0.57432   0.01267  Uiso   1.00
O47    O     0.05980   0.99600   0.40294   0.01267  Uiso   1.00
O48    O     0.82700   0.03781   0.35084   0.01267  Uiso   1.00
