data_REHJEV_charged
_audit_creation_date              2014-07-02
_audit_creation_method            'Materials Studio'
_symmetry_space_group_name_H-M    'P1'
_symmetry_Int_Tables_number       1
_symmetry_cell_setting            triclinic
loop_
_symmetry_equiv_pos_as_xyz
  x,y,z
_cell_length_a                    11.9344
_cell_length_b                    14.2619
_cell_length_c                    22.7027
_cell_angle_alpha                 76.3734
_cell_angle_beta                  74.7612
_cell_angle_gamma                 65.2662
loop_
_atom_site_label
_atom_site_type_symbol
_atom_site_fract_x
_atom_site_fract_y
_atom_site_fract_z
_atom_site_U_iso_or_equiv
_atom_site_adp_type
_atom_site_occupancy
Ag1    Ag    0.23190   0.83106   0.08375   0.01267  Uiso   1.00
Ag2    Ag    0.14671   0.66894   0.41625   0.01267  Uiso   1.00
Ag3    Ag    0.76810   0.16894   0.91625   0.01267  Uiso   1.00
Ag4    Ag    0.85329   0.33106   0.58375   0.01267  Uiso   1.00
Ag5    Ag    0.00000   0.00000   0.50000   0.01267  Uiso   1.00
Ag6    Ag    0.50000   0.50000  -0.00000   0.01267  Uiso   1.00
H1     H     0.55680   0.22140   0.40000   0.01267  Uiso   1.00
H2     H     0.67250   0.12410   0.37650   0.01267  Uiso   1.00
H3     H     0.65430   0.20630   0.21450   0.01267  Uiso   1.00
H4     H     0.74810   0.21090   0.25010   0.01267  Uiso   1.00
H5     H     0.86870   0.14790   0.16470   0.01267  Uiso   1.00
H6     H     0.44750   0.36440   0.32740   0.01267  Uiso   1.00
H7     H     0.56940   0.37140   0.28180   0.01267  Uiso   1.00
H8     H     0.21580   0.25420   0.45540   0.01267  Uiso   1.00
H9     H     0.45910   0.17090   0.27970   0.01267  Uiso   1.00
H10    H     0.53440   0.08690   0.32890   0.01267  Uiso   1.00
H11    H     0.36580   0.04090   0.33870   0.01267  Uiso   1.00
H12    H     0.07500   0.17490   0.50490   0.01267  Uiso   1.00
H13    H     0.43770   0.53820   0.26260   0.01267  Uiso   1.00
H14    H     0.04890   0.05590   0.10470   0.01267  Uiso   1.00
H15    H     0.34070   0.41380   0.15200   0.01267  Uiso   1.00
H16    H     0.22000   0.97280   0.39200   0.01267  Uiso   1.00
H17    H     0.86130   0.87930   0.26490   0.01267  Uiso   1.00
H18    H     0.03900   0.79550   0.19910   0.01267  Uiso   1.00
H19    H     0.88280   0.38880   0.43760   0.01267  Uiso   1.00
H20    H     0.35240   0.69440   0.20660   0.01267  Uiso   1.00
H21    H     0.82700   0.36080   0.35740   0.01267  Uiso   1.00
H22    H     0.72960   0.20670   0.55130   0.01267  Uiso   1.00
H23    H     0.66990   0.17230   0.47430   0.01267  Uiso   1.00
H24    H     0.24980   0.57840   0.10280   0.01267  Uiso   1.00
H25    H     0.17820   0.27860   0.10000   0.01267  Uiso   1.00
H26    H     0.17310   0.37590   0.12350   0.01267  Uiso   1.00
H27    H     0.07510   0.29370   0.28550   0.01267  Uiso   1.00
H28    H     0.20910   0.28910   0.24990   0.01267  Uiso   1.00
H29    H     0.18130   0.35210   0.33530   0.01267  Uiso   1.00
H30    H     0.13930   0.13560   0.17260   0.01267  Uiso   1.00
H31    H     0.22260   0.12860   0.21820   0.01267  Uiso   1.00
H32    H     0.92540   0.24580   0.04460   0.01267  Uiso   1.00
H33    H     0.90970   0.32910   0.22030   0.01267  Uiso   1.00
H34    H     0.95020   0.41310   0.17110   0.01267  Uiso   1.00
H35    H     0.74540   0.45910   0.16130   0.01267  Uiso   1.00
H36    H     0.75480   0.32510   0.99510   0.01267  Uiso   1.00
H37    H     0.23850   0.96180   0.23740   0.01267  Uiso   1.00
H38    H     0.20950   0.44410   0.39530   0.01267  Uiso   1.00
H39    H     0.90650   0.08620   0.34800   0.01267  Uiso   1.00
H40    H     0.58480   0.52720   0.10800   0.01267  Uiso   1.00
H41    H     0.00550   0.62070   0.23510   0.01267  Uiso   1.00
H42    H     0.03360   0.70450   0.30090   0.01267  Uiso   1.00
H43    H     0.70920   0.11120   0.06240   0.01267  Uiso   1.00
H44    H     0.25340   0.80560   0.29340   0.01267  Uiso   1.00
H45    H     0.54520   0.13920   0.14260   0.01267  Uiso   1.00
H46    H     0.48760   0.29330   0.94870   0.01267  Uiso   1.00
H47    H     0.31650   0.32770   0.02570   0.01267  Uiso   1.00
H48    H     0.93100   0.92160   0.39720   0.01267  Uiso   1.00
H49    H     0.44320   0.77860   0.60000   0.01267  Uiso   1.00
H50    H     0.32750   0.87590   0.62350   0.01267  Uiso   1.00
H51    H     0.34570   0.79370   0.78550   0.01267  Uiso   1.00
H52    H     0.25190   0.78910   0.74990   0.01267  Uiso   1.00
H53    H     0.13130   0.85210   0.83530   0.01267  Uiso   1.00
H54    H     0.55250   0.63560   0.67260   0.01267  Uiso   1.00
H55    H     0.43060   0.62860   0.71820   0.01267  Uiso   1.00
H56    H     0.78420   0.74580   0.54460   0.01267  Uiso   1.00
H57    H     0.54090   0.82910   0.72030   0.01267  Uiso   1.00
H58    H     0.46560   0.91310   0.67110   0.01267  Uiso   1.00
H59    H     0.63420   0.95910   0.66130   0.01267  Uiso   1.00
H60    H     0.92500   0.82510   0.49510   0.01267  Uiso   1.00
H61    H     0.56230   0.46180   0.73740   0.01267  Uiso   1.00
H62    H     0.95110   0.94410   0.89530   0.01267  Uiso   1.00
H63    H     0.65930   0.58620   0.84800   0.01267  Uiso   1.00
H64    H     0.78000   0.02720   0.60800   0.01267  Uiso   1.00
H65    H     0.13870   0.12070   0.73510   0.01267  Uiso   1.00
H66    H     0.96100   0.20450   0.80090   0.01267  Uiso   1.00
H67    H     0.11720   0.61120   0.56240   0.01267  Uiso   1.00
H68    H     0.64760   0.30560   0.79340   0.01267  Uiso   1.00
H69    H     0.17300   0.63920   0.64260   0.01267  Uiso   1.00
H70    H     0.27040   0.79330   0.44870   0.01267  Uiso   1.00
H71    H     0.33010   0.82770   0.52570   0.01267  Uiso   1.00
H72    H     0.75020   0.42160   0.89720   0.01267  Uiso   1.00
H73    H     0.82180   0.72140   0.90000   0.01267  Uiso   1.00
H74    H     0.82690   0.62410   0.87650   0.01267  Uiso   1.00
H75    H     0.92490   0.70630   0.71450   0.01267  Uiso   1.00
H76    H     0.79090   0.71090   0.75010   0.01267  Uiso   1.00
H77    H     0.81870   0.64790   0.66470   0.01267  Uiso   1.00
H78    H     0.86070   0.86440   0.82740   0.01267  Uiso   1.00
H79    H     0.77740   0.87140   0.78180   0.01267  Uiso   1.00
H80    H     0.07460   0.75420   0.95540   0.01267  Uiso   1.00
H81    H     0.09030   0.67090   0.77970   0.01267  Uiso   1.00
H82    H     0.04980   0.58690   0.82890   0.01267  Uiso   1.00
H83    H     0.25460   0.54090   0.83870   0.01267  Uiso   1.00
H84    H     0.24520   0.67490   0.00490   0.01267  Uiso   1.00
H85    H     0.76150   0.03820   0.76260   0.01267  Uiso   1.00
H86    H     0.79050   0.55590   0.60470   0.01267  Uiso   1.00
H87    H     0.09350   0.91380   0.65200   0.01267  Uiso   1.00
H88    H     0.41520   0.47280   0.89200   0.01267  Uiso   1.00
H89    H     0.99450   0.37930   0.76490   0.01267  Uiso   1.00
H90    H     0.96640   0.29550   0.69910   0.01267  Uiso   1.00
H91    H     0.29080   0.88880   0.93760   0.01267  Uiso   1.00
H92    H     0.74660   0.19440   0.70660   0.01267  Uiso   1.00
H93    H     0.45480   0.86080   0.85740   0.01267  Uiso   1.00
H94    H     0.51240   0.70670   0.05130   0.01267  Uiso   1.00
H95    H     0.68350   0.67230   0.97430   0.01267  Uiso   1.00
H96    H     0.06900   0.07840   0.60280   0.01267  Uiso   1.00
C1     C     0.30860   0.15470   0.39210   0.01267  Uiso   1.00
C2     C     0.84400   0.02444   0.22176   0.01267  Uiso   1.00
C3     C     0.62630   0.19810   0.36630   0.01267  Uiso   1.00
C4     C     0.68559   0.18250   0.25292   0.01267  Uiso   1.00
C5     C     0.90230   0.07560   0.17300   0.01267  Uiso   1.00
C6     C     0.51000   0.33730   0.29210   0.01267  Uiso   1.00
C7     C     0.21910   0.19640   0.44180   0.01267  Uiso   1.00
C8     C     0.49015   0.16100   0.31710   0.01267  Uiso   1.00
C9     C     0.57763   0.21980   0.30674   0.01267  Uiso   1.00
C10    C     0.74018   0.26424   0.40680   0.01267  Uiso   1.00
C11    C     0.30810   0.06980   0.37240   0.01267  Uiso   1.00
C12    C     0.13400   0.14860   0.47080   0.01267  Uiso   1.00
C13    C     0.40230   0.54360   0.22940   0.01267  Uiso   1.00
C14    C     0.40074   0.45572   0.21300   0.01267  Uiso   1.00
C15    C     0.00960   0.01970   0.13690   0.01267  Uiso   1.00
C16    C     0.34370   0.47020   0.16440   0.01267  Uiso   1.00
C17    C     0.21950   0.03050   0.40470   0.01267  Uiso   1.00
C18    C     0.89700   0.91710   0.23210   0.01267  Uiso   1.00
C19    C     0.00380   0.86810   0.19250   0.01267  Uiso   1.00
C20    C     0.83940   0.34490   0.44490   0.01267  Uiso   1.00
C21    C     0.35040   0.63670   0.19530   0.01267  Uiso   1.00
C22    C     0.80600   0.32880   0.39700   0.01267  Uiso   1.00
C23    C     0.74960   0.23820   0.51140   0.01267  Uiso   1.00
C24    C     0.71250   0.21710   0.46570   0.01267  Uiso   1.00
C25    C     0.29160   0.56910   0.13430   0.01267  Uiso   1.00
C26    C     0.85540   0.34530   0.10790   0.01267  Uiso   1.00
C27    C     0.09020   0.47556   0.27824   0.01267  Uiso   1.00
C28    C     0.19070   0.30190   0.13370   0.01267  Uiso   1.00
C29    C     0.12101   0.31750   0.24708   0.01267  Uiso   1.00
C30    C     0.15090   0.42440   0.32700   0.01267  Uiso   1.00
C31    C     0.13940   0.16270   0.20790   0.01267  Uiso   1.00
C32    C     0.85730   0.30360   0.05820   0.01267  Uiso   1.00
C33    C     0.96825   0.33900   0.18290   0.01267  Uiso   1.00
C34    C     0.10417   0.28020   0.19326   0.01267  Uiso   1.00
C35    C     0.41122   0.23576   0.09320   0.01267  Uiso   1.00
C36    C     0.75030   0.43020   0.12760   0.01267  Uiso   1.00
C37    C     0.75340   0.35140   0.02920   0.01267  Uiso   1.00
C38    C     0.17530   0.95640   0.27060   0.01267  Uiso   1.00
C39    C     0.06946   0.04428   0.28700   0.01267  Uiso   1.00
C40    C     0.16620   0.48030   0.36310   0.01267  Uiso   1.00
C41    C     0.97830   0.02980   0.33560   0.01267  Uiso   1.00
C42    C     0.65470   0.46950   0.09530   0.01267  Uiso   1.00
C43    C     0.04620   0.58290   0.26790   0.01267  Uiso   1.00
C44    C     0.06440   0.63190   0.30750   0.01267  Uiso   1.00
C45    C     0.62920   0.15510   0.05510   0.01267  Uiso   1.00
C46    C     0.18240   0.86330   0.30470   0.01267  Uiso   1.00
C47    C     0.53180   0.17120   0.10300   0.01267  Uiso   1.00
C48    C     0.49920   0.26180   0.98860   0.01267  Uiso   1.00
C49    C     0.39530   0.28290   0.03430   0.01267  Uiso   1.00
C50    C     0.99500   0.93090   0.36570   0.01267  Uiso   1.00
C51    C     0.69140   0.84530   0.60790   0.01267  Uiso   1.00
C52    C     0.15600   0.97556   0.77824   0.01267  Uiso   1.00
C53    C     0.37370   0.80190   0.63370   0.01267  Uiso   1.00
C54    C     0.31441   0.81750   0.74708   0.01267  Uiso   1.00
C55    C     0.09770   0.92440   0.82700   0.01267  Uiso   1.00
C56    C     0.49000   0.66270   0.70790   0.01267  Uiso   1.00
C57    C     0.78090   0.80360   0.55820   0.01267  Uiso   1.00
C58    C     0.50985   0.83900   0.68290   0.01267  Uiso   1.00
C59    C     0.42237   0.78020   0.69326   0.01267  Uiso   1.00
C60    C     0.25982   0.73576   0.59320   0.01267  Uiso   1.00
C61    C     0.69190   0.93020   0.62760   0.01267  Uiso   1.00
C62    C     0.86600   0.85140   0.52920   0.01267  Uiso   1.00
C63    C     0.59770   0.45640   0.77060   0.01267  Uiso   1.00
C64    C     0.59926   0.54428   0.78700   0.01267  Uiso   1.00
C65    C     0.99040   0.98030   0.86310   0.01267  Uiso   1.00
C66    C     0.65630   0.52980   0.83560   0.01267  Uiso   1.00
C67    C     0.78050   0.96950   0.59530   0.01267  Uiso   1.00
C68    C     0.10300   0.08290   0.76790   0.01267  Uiso   1.00
C69    C     0.99620   0.13190   0.80750   0.01267  Uiso   1.00
C70    C     0.16060   0.65510   0.55510   0.01267  Uiso   1.00
C71    C     0.64960   0.36330   0.80470   0.01267  Uiso   1.00
C72    C     0.19400   0.67120   0.60300   0.01267  Uiso   1.00
C73    C     0.25040   0.76180   0.48860   0.01267  Uiso   1.00
C74    C     0.28750   0.78290   0.53430   0.01267  Uiso   1.00
C75    C     0.70840   0.43090   0.86570   0.01267  Uiso   1.00
C76    C     0.14460   0.65470   0.89210   0.01267  Uiso   1.00
C77    C     0.90980   0.52444   0.72176   0.01267  Uiso   1.00
C78    C     0.80930   0.69810   0.86630   0.01267  Uiso   1.00
C79    C     0.87899   0.68250   0.75292   0.01267  Uiso   1.00
C80    C     0.84910   0.57560   0.67300   0.01267  Uiso   1.00
C81    C     0.86060   0.83730   0.79210   0.01267  Uiso   1.00
C82    C     0.14270   0.69640   0.94180   0.01267  Uiso   1.00
C83    C     0.03175   0.66100   0.81710   0.01267  Uiso   1.00
C84    C     0.89583   0.71980   0.80674   0.01267  Uiso   1.00
C85    C     0.58878   0.76424   0.90680   0.01267  Uiso   1.00
C86    C     0.24970   0.56980   0.87240   0.01267  Uiso   1.00
C87    C     0.24660   0.64860   0.97080   0.01267  Uiso   1.00
C88    C     0.82470   0.04360   0.72940   0.01267  Uiso   1.00
C89    C     0.93054   0.95572   0.71300   0.01267  Uiso   1.00
C90    C     0.83380   0.51970   0.63690   0.01267  Uiso   1.00
C91    C     0.02170   0.97020   0.66440   0.01267  Uiso   1.00
C92    C     0.34530   0.53050   0.90470   0.01267  Uiso   1.00
C93    C     0.95380   0.41710   0.73210   0.01267  Uiso   1.00
C94    C     0.93560   0.36810   0.69250   0.01267  Uiso   1.00
C95    C     0.37080   0.84490   0.94490   0.01267  Uiso   1.00
C96    C     0.81760   0.13670   0.69530   0.01267  Uiso   1.00
C97    C     0.46820   0.82880   0.89700   0.01267  Uiso   1.00
C98    C     0.50080   0.73820   0.01140   0.01267  Uiso   1.00
C99    C     0.60470   0.71710   0.96570   0.01267  Uiso   1.00
C100   C     0.00500   0.06910   0.63430   0.01267  Uiso   1.00
N1     N     0.13275   0.06782   0.45268   0.01267  Uiso   1.00
N2     N     0.06097   0.91722   0.14504   0.01267  Uiso   1.00
N3     N     0.81163   0.29924   0.50350   0.01267  Uiso   1.00
N4     N     0.29730   0.65410   0.14790   0.01267  Uiso   1.00
N5     N     0.65325   0.43218   0.04732   0.01267  Uiso   1.00
N6     N     0.12323   0.58278   0.35496   0.01267  Uiso   1.00
N7     N     0.61437   0.20076   0.99650   0.01267  Uiso   1.00
N8     N     0.09930   0.84590   0.35210   0.01267  Uiso   1.00
N9     N     0.86725   0.93218   0.54732   0.01267  Uiso   1.00
N10    N     0.93903   0.08278   0.85496   0.01267  Uiso   1.00
N11    N     0.18837   0.70076   0.49650   0.01267  Uiso   1.00
N12    N     0.70270   0.34590   0.85210   0.01267  Uiso   1.00
N13    N     0.34675   0.56782   0.95268   0.01267  Uiso   1.00
N14    N     0.87677   0.41722   0.64504   0.01267  Uiso   1.00
N15    N     0.38563   0.79924   0.00350   0.01267  Uiso   1.00
N16    N     0.90070   0.15410   0.64790   0.01267  Uiso   1.00
O1     O     0.38805   0.20391   0.36579   0.01267  Uiso   1.00
O2     O     0.74049   0.07159   0.26303   0.01267  Uiso   1.00
O3     O     0.70659   0.25392   0.35630   0.01267  Uiso   1.00
O4     O     0.45051   0.35646   0.23992   0.01267  Uiso   1.00
O5     O     0.95775   0.29609   0.13421   0.01267  Uiso   1.00
O6     O     0.07511   0.42841   0.23697   0.01267  Uiso   1.00
O7     O     0.31681   0.24608   0.14370   0.01267  Uiso   1.00
O8     O     0.04689   0.14354   0.26008   0.01267  Uiso   1.00
O9     O     0.61195   0.79609   0.63421   0.01267  Uiso   1.00
O10    O     0.25951   0.92841   0.73697   0.01267  Uiso   1.00
O11    O     0.29341   0.74608   0.64370   0.01267  Uiso   1.00
O12    O     0.54949   0.64354   0.76008   0.01267  Uiso   1.00
O13    O     0.04225   0.70391   0.86579   0.01267  Uiso   1.00
O14    O     0.92489   0.57159   0.76303   0.01267  Uiso   1.00
O15    O     0.68319   0.75392   0.85630   0.01267  Uiso   1.00
O16    O     0.95311   0.85646   0.73992   0.01267  Uiso   1.00
N17    N     0.93510   0.52760   0.48500   0.01267  Uiso   1.00
N18    N     0.06490   0.47240   0.51500   0.01267  Uiso   1.00
O17    O     0.00900   0.42550   0.49710   0.01267  Uiso   1.00
O18    O     0.84620   0.59620   0.45780   0.01267  Uiso   1.00
O19    O     0.99100   0.57450   0.50290   0.01267  Uiso   1.00
O20    O     0.15380   0.40380   0.54220   0.01267  Uiso   1.00
N19    N     0.59270   0.53760   0.52900   0.01267  Uiso   1.00
O21    O     0.54640   0.49380   0.57940   0.01267  Uiso   1.00
O22    O     0.62810   0.60990   0.52990   0.01267  Uiso   1.00
O23    O     0.60450   0.52040   0.47460   0.01267  Uiso   1.00
N20    N     0.94770   0.97240   0.01500   0.01267  Uiso   1.00
N21    N     0.05230   0.02760   0.98500   0.01267  Uiso   1.00
O24    O     0.93160   0.07450   0.00290   0.01267  Uiso   1.00
O25    O     0.90020   0.90380   0.04220   0.01267  Uiso   1.00
O26    O     0.06840   0.92550   0.99710   0.01267  Uiso   1.00
O27    O     0.09980   0.09620   0.95780   0.01267  Uiso   1.00
N22    N     0.65930   0.96240   0.97100   0.01267  Uiso   1.00
O28    O     0.61960   0.00620   0.92060   0.01267  Uiso   1.00
O29    O     0.76790   0.89010   0.97010   0.01267  Uiso   1.00
O30    O     0.59950   0.97960   0.02540   0.01267  Uiso   1.00
N23    N     0.40730   0.46240   0.47100   0.01267  Uiso   1.00
O31    O     0.45360   0.50620   0.42060   0.01267  Uiso   1.00
O32    O     0.37190   0.39010   0.47010   0.01267  Uiso   1.00
O33    O     0.39550   0.47960   0.52540   0.01267  Uiso   1.00
N24    N     0.34070   0.03760   0.02900   0.01267  Uiso   1.00
O34    O     0.38040   0.99380   0.07940   0.01267  Uiso   1.00
O35    O     0.23210   0.10990   0.02990   0.01267  Uiso   1.00
O36    O     0.40050   0.02040   0.97460   0.01267  Uiso   1.00
