data_REHMEY_clean
_audit_creation_date              2014-07-02
_audit_creation_method            'Materials Studio'
_symmetry_space_group_name_H-M    'P1'
_symmetry_Int_Tables_number       1
_symmetry_cell_setting            triclinic
loop_
_symmetry_equiv_pos_as_xyz
  x,y,z
_cell_length_a                    9.0717
_cell_length_b                    9.5953
_cell_length_c                    24.5297
_cell_angle_alpha                 79.4860
_cell_angle_beta                  85.1670
_cell_angle_gamma                 88.9730
loop_
_atom_site_label
_atom_site_type_symbol
_atom_site_fract_x
_atom_site_fract_y
_atom_site_fract_z
_atom_site_U_iso_or_equiv
_atom_site_adp_type
_atom_site_occupancy
Cd1    Cd    0.80842   0.91566   0.84077   0.01267  Uiso   1.00
Cd2    Cd    0.19158   0.08434   0.15923   0.01267  Uiso   1.00
H1     H     0.17380   0.67700   0.60870   0.01267  Uiso   1.00
H2     H     0.13160   0.90520   0.77780   0.01267  Uiso   1.00
H3     H     0.01770   0.73030   0.93080   0.01267  Uiso   1.00
H4     H     0.59670   0.45820   0.91470   0.01267  Uiso   1.00
H5     H     0.56190   0.70350   0.03000   0.01267  Uiso   1.00
H6     H     0.14380   0.20090   0.43580   0.01267  Uiso   1.00
H7     H     0.12800   0.22450   0.34200   0.01267  Uiso   1.00
H8     H     0.30730   0.84140   0.34440   0.01267  Uiso   1.00
H9     H     0.42440   0.66960   0.86440   0.01267  Uiso   1.00
H10    H     0.90300   0.24070   0.78860   0.01267  Uiso   1.00
H11    H     0.09050   0.12740   0.52600   0.01267  Uiso   1.00
H12    H     0.12230   0.11220   0.61890   0.01267  Uiso   1.00
H13    H     0.33120   0.82080   0.43790   0.01267  Uiso   1.00
H14    H     0.92470   0.26910   0.97020   0.01267  Uiso   1.00
H15    H     0.45140   0.83470   0.60620   0.01267  Uiso   1.00
H16    H     0.24610   0.62740   0.93920   0.01267  Uiso   1.00
H17    H     0.88890   0.05720   0.94340   0.01267  Uiso   1.00
H18    H     0.46140   0.91610   0.76780   0.01267  Uiso   1.00
H19    H     0.48780   0.75410   0.76880   0.01267  Uiso   1.00
H20    H     0.42280   0.85240   0.51310   0.01267  Uiso   1.00
H21    H     0.02830   0.56330   0.79920   0.01267  Uiso   1.00
H22    H     0.85560   0.57400   0.80210   0.01267  Uiso   1.00
H23    H     0.94590   0.47380   0.90380   0.01267  Uiso   1.00
H24    H     0.14720   0.66850   0.51720   0.01267  Uiso   1.00
H25    H     0.90740   0.34500   0.65620   0.01267  Uiso   1.00
H26    H     0.89050   0.32970   0.56450   0.01267  Uiso   1.00
H27    H     0.86650   0.45380   0.72750   0.01267  Uiso   1.00
H28    H     0.35640   0.76920   0.69540   0.01267  Uiso   1.00
H29    H     0.82620   0.32300   0.39130   0.01267  Uiso   1.00
H30    H     0.86840   0.09480   0.22220   0.01267  Uiso   1.00
H31    H     0.98230   0.26970   0.06920   0.01267  Uiso   1.00
H32    H     0.40330   0.54180   0.08530   0.01267  Uiso   1.00
H33    H     0.43810   0.29650   0.97000   0.01267  Uiso   1.00
H34    H     0.85620   0.79910   0.56420   0.01267  Uiso   1.00
H35    H     0.87200   0.77550   0.65800   0.01267  Uiso   1.00
H36    H     0.69270   0.15860   0.65560   0.01267  Uiso   1.00
H37    H     0.57560   0.33040   0.13560   0.01267  Uiso   1.00
H38    H     0.09700   0.75930   0.21140   0.01267  Uiso   1.00
H39    H     0.90950   0.87260   0.47400   0.01267  Uiso   1.00
H40    H     0.87770   0.88780   0.38110   0.01267  Uiso   1.00
H41    H     0.66880   0.17920   0.56210   0.01267  Uiso   1.00
H42    H     0.07530   0.73090   0.02980   0.01267  Uiso   1.00
H43    H     0.54860   0.16530   0.39380   0.01267  Uiso   1.00
H44    H     0.75390   0.37260   0.06080   0.01267  Uiso   1.00
H45    H     0.11110   0.94280   0.05660   0.01267  Uiso   1.00
H46    H     0.53860   0.08390   0.23220   0.01267  Uiso   1.00
H47    H     0.51220   0.24590   0.23120   0.01267  Uiso   1.00
H48    H     0.57720   0.14760   0.48690   0.01267  Uiso   1.00
H49    H     0.97170   0.43670   0.20080   0.01267  Uiso   1.00
H50    H     0.14440   0.42600   0.19790   0.01267  Uiso   1.00
H51    H     0.05410   0.52620   0.09620   0.01267  Uiso   1.00
H52    H     0.85280   0.33150   0.48280   0.01267  Uiso   1.00
H53    H     0.09260   0.65500   0.34380   0.01267  Uiso   1.00
H54    H     0.10950   0.67030   0.43550   0.01267  Uiso   1.00
H55    H     0.13350   0.54620   0.27250   0.01267  Uiso   1.00
H56    H     0.64360   0.23080   0.30460   0.01267  Uiso   1.00
C1     C     0.11320   0.60830   0.60000   0.01267  Uiso   1.00
C2     C     0.59670   0.59640   0.96666   0.01267  Uiso   1.00
C3     C     0.06040   0.52870   0.70120   0.01267  Uiso   1.00
C4     C     0.15600   0.84910   0.81095   0.01267  Uiso   1.00
C5     C     0.08800   0.74610   0.90050   0.01267  Uiso   1.00
C6     C     0.55810   0.47540   0.94916   0.01267  Uiso   1.00
C7     C     0.19750   0.04860   0.27203   0.01267  Uiso   1.00
C8     C     0.23900   0.00780   0.44787   0.01267  Uiso   1.00
C9     C     0.92800   0.37950   0.83808   0.01267  Uiso   1.00
C10    C     0.69530   0.70690   0.92930   0.01267  Uiso   1.00
C11    C     0.53740   0.62120   0.01782   0.01267  Uiso   1.00
C12    C     0.17800   0.12810   0.41766   0.01267  Uiso   1.00
C13    C     0.21310   0.03500   0.33282   0.01267  Uiso   1.00
C14    C     0.16720   0.14160   0.36136   0.01267  Uiso   1.00
C15    C     0.31690   0.96780   0.68243   0.01267  Uiso   1.00
C16    C     0.27470   0.91470   0.36258   0.01267  Uiso   1.00
C17    C     0.33080   0.70980   0.86140   0.01267  Uiso   1.00
C18    C     0.90710   0.24750   0.82581   0.01267  Uiso   1.00
C19    C     0.16430   0.06900   0.54185   0.01267  Uiso   1.00
C20    C     0.18270   0.05920   0.59778   0.01267  Uiso   1.00
C21    C     0.29020   0.97140   0.62272   0.01267  Uiso   1.00
C22    C     0.28820   0.90210   0.41890   0.01267  Uiso   1.00
C23    C     0.91970   0.26540   0.93280   0.01267  Uiso   1.00
C24    C     0.37890   0.89450   0.59007   0.01267  Uiso   1.00
C25    C     0.22480   0.68490   0.90594   0.01267  Uiso   1.00
C26    C     0.89890   0.13890   0.91639   0.01267  Uiso   1.00
C27    C     0.41350   0.82840   0.76506   0.01267  Uiso   1.00
C28    C     0.36160   0.90500   0.53414   0.01267  Uiso   1.00
C29    C     0.93910   0.51350   0.79501   0.01267  Uiso   1.00
C30    C     0.25430   0.99270   0.50874   0.01267  Uiso   1.00
C31    C     0.29670   0.79410   0.81291   0.01267  Uiso   1.00
C32    C     0.01000   0.50220   0.52970   0.01267  Uiso   1.00
C33    C     0.93320   0.38680   0.89323   0.01267  Uiso   1.00
C34    C     0.04110   0.51420   0.64220   0.01267  Uiso   1.00
C35    C     0.09740   0.60260   0.54490   0.01267  Uiso   1.00
C36    C     0.95670   0.41060   0.62830   0.01267  Uiso   1.00
C37    C     0.94440   0.40330   0.57290   0.01267  Uiso   1.00
C38    C     0.88680   0.39170   0.40000   0.01267  Uiso   1.00
C39    C     0.40330   0.40360   0.03334   0.01267  Uiso   1.00
C40    C     0.93960   0.47130   0.29880   0.01267  Uiso   1.00
C41    C     0.84400   0.15090   0.18905   0.01267  Uiso   1.00
C42    C     0.91200   0.25390   0.09950   0.01267  Uiso   1.00
C43    C     0.44190   0.52460   0.05084   0.01267  Uiso   1.00
C44    C     0.80250   0.95140   0.72797   0.01267  Uiso   1.00
C45    C     0.76100   0.99220   0.55213   0.01267  Uiso   1.00
C46    C     0.07200   0.62050   0.16192   0.01267  Uiso   1.00
C47    C     0.30470   0.29310   0.07070   0.01267  Uiso   1.00
C48    C     0.46260   0.37880   0.98218   0.01267  Uiso   1.00
C49    C     0.82200   0.87190   0.58234   0.01267  Uiso   1.00
C50    C     0.78690   0.96500   0.66718   0.01267  Uiso   1.00
C51    C     0.83280   0.85840   0.63864   0.01267  Uiso   1.00
C52    C     0.68310   0.03220   0.31757   0.01267  Uiso   1.00
C53    C     0.72530   0.08530   0.63742   0.01267  Uiso   1.00
C54    C     0.66920   0.29020   0.13860   0.01267  Uiso   1.00
C55    C     0.09290   0.75250   0.17419   0.01267  Uiso   1.00
C56    C     0.83570   0.93100   0.45815   0.01267  Uiso   1.00
C57    C     0.81730   0.94080   0.40222   0.01267  Uiso   1.00
C58    C     0.70980   0.02860   0.37728   0.01267  Uiso   1.00
C59    C     0.71180   0.09790   0.58110   0.01267  Uiso   1.00
C60    C     0.08030   0.73460   0.06720   0.01267  Uiso   1.00
C61    C     0.62110   0.10550   0.40993   0.01267  Uiso   1.00
C62    C     0.77520   0.31510   0.09406   0.01267  Uiso   1.00
C63    C     0.10110   0.86110   0.08361   0.01267  Uiso   1.00
C64    C     0.58650   0.17160   0.23494   0.01267  Uiso   1.00
C65    C     0.63840   0.09500   0.46586   0.01267  Uiso   1.00
C66    C     0.06090   0.48650   0.20499   0.01267  Uiso   1.00
C67    C     0.74570   0.00730   0.49126   0.01267  Uiso   1.00
C68    C     0.70330   0.20590   0.18709   0.01267  Uiso   1.00
C69    C     0.99000   0.49780   0.47030   0.01267  Uiso   1.00
C70    C     0.06680   0.61320   0.10677   0.01267  Uiso   1.00
C71    C     0.95890   0.48580   0.35780   0.01267  Uiso   1.00
C72    C     0.90260   0.39740   0.45510   0.01267  Uiso   1.00
C73    C     0.04330   0.58940   0.37170   0.01267  Uiso   1.00
C74    C     0.05560   0.59670   0.42710   0.01267  Uiso   1.00
N1     N     0.05180   0.82730   0.85336   0.01267  Uiso   1.00
N2     N     0.89220   0.12810   0.86371   0.01267  Uiso   1.00
N3     N     0.94190   0.49150   0.73813   0.01267  Uiso   1.00
N4     N     0.36030   0.84320   0.71046   0.01267  Uiso   1.00
N5     N     0.94820   0.17270   0.14664   0.01267  Uiso   1.00
N6     N     0.10780   0.87190   0.13629   0.01267  Uiso   1.00
N7     N     0.05810   0.50850   0.26187   0.01267  Uiso   1.00
N8     N     0.63970   0.15680   0.28954   0.01267  Uiso   1.00
O1     O     0.17570   0.57320   0.71452   0.01267  Uiso   1.00
O2     O     0.75600   0.79790   0.95009   0.01267  Uiso   1.00
O3     O     0.70530   0.70230   0.87833   0.01267  Uiso   1.00
O4     O     0.17350   0.16660   0.24412   0.01267  Uiso   1.00
O5     O     0.20950   0.94150   0.25040   0.01267  Uiso   1.00
O6     O     0.30220   0.07340   0.70380   0.01267  Uiso   1.00
O7     O     0.82430   0.42680   0.28548   0.01267  Uiso   1.00
O8     O     0.24400   0.20210   0.04991   0.01267  Uiso   1.00
O9     O     0.29470   0.29770   0.12167   0.01267  Uiso   1.00
O10    O     0.82650   0.83340   0.75588   0.01267  Uiso   1.00
O11    O     0.79050   0.05850   0.74960   0.01267  Uiso   1.00
O12    O     0.69780   0.92660   0.29620   0.01267  Uiso   1.00
