data_RIDDUE_clean
_audit_creation_date              2014-07-02
_audit_creation_method            'Materials Studio'
_symmetry_space_group_name_H-M    'P1'
_symmetry_Int_Tables_number       1
_symmetry_cell_setting            triclinic
loop_
_symmetry_equiv_pos_as_xyz
  x,y,z
_cell_length_a                    10.9141
_cell_length_b                    10.9141
_cell_length_c                    11.0460
_cell_angle_alpha                 85.8567
_cell_angle_beta                  85.8567
_cell_angle_gamma                 67.4296
loop_
_atom_site_label
_atom_site_type_symbol
_atom_site_fract_x
_atom_site_fract_y
_atom_site_fract_z
_atom_site_U_iso_or_equiv
_atom_site_adp_type
_atom_site_occupancy
Co1    Co    0.49389   0.35551   0.99238   0.01267  Uiso   1.00
Co2    Co    0.64449   0.50611   0.50762   0.01267  Uiso   1.00
Co3    Co    0.50611   0.64449   0.00762   0.01267  Uiso   1.00
Co4    Co    0.35551   0.49389   0.49238   0.01267  Uiso   1.00
Co5    Co    0.60142   0.39858   0.25000   0.01267  Uiso   1.00
Co6    Co    0.39858   0.60142   0.75000   0.01267  Uiso   1.00
H1     H     0.68500   0.40620   0.03750   0.01267  Uiso   1.00
H2     H     0.57540   0.93020   0.06780   0.01267  Uiso   1.00
H3     H     0.64160   0.83760   0.48700   0.01267  Uiso   1.00
H4     H     0.63880   0.03300   0.39440   0.01267  Uiso   1.00
H5     H     0.59380   0.31500   0.46250   0.01267  Uiso   1.00
H6     H     0.06980   0.42460   0.43220   0.01267  Uiso   1.00
H7     H     0.16240   0.35840   0.01300   0.01267  Uiso   1.00
H8     H     0.96700   0.36120   0.10560   0.01267  Uiso   1.00
H9     H     0.31500   0.59380   0.96250   0.01267  Uiso   1.00
H10    H     0.42460   0.06980   0.93220   0.01267  Uiso   1.00
H11    H     0.35840   0.16240   0.51300   0.01267  Uiso   1.00
H12    H     0.36120   0.96700   0.60560   0.01267  Uiso   1.00
H13    H     0.40620   0.68500   0.53750   0.01267  Uiso   1.00
H14    H     0.93020   0.57540   0.56780   0.01267  Uiso   1.00
H15    H     0.83760   0.64160   0.98700   0.01267  Uiso   1.00
H16    H     0.03300   0.63880   0.89440   0.01267  Uiso   1.00
C1     C     0.58710   0.79410   0.20780   0.01267  Uiso   1.00
C2     C     0.58830   0.91210   0.15050   0.01267  Uiso   1.00
C3     C     0.61140   0.12820   0.16850   0.01267  Uiso   1.00
C4     C     0.60890   0.76570   0.33230   0.01267  Uiso   1.00
C5     C     0.60920   0.00040   0.22090   0.01267  Uiso   1.00
C6     C     0.62840   0.85560   0.40440   0.01267  Uiso   1.00
C7     C     0.62730   0.97070   0.34810   0.01267  Uiso   1.00
C8     C     0.20590   0.41290   0.29220   0.01267  Uiso   1.00
C9     C     0.08790   0.41170   0.34950   0.01267  Uiso   1.00
C10    C     0.87180   0.38860   0.33150   0.01267  Uiso   1.00
C11    C     0.23430   0.39110   0.16770   0.01267  Uiso   1.00
C12    C     0.99960   0.39080   0.27910   0.01267  Uiso   1.00
C13    C     0.14440   0.37160   0.09560   0.01267  Uiso   1.00
C14    C     0.02930   0.37270   0.15190   0.01267  Uiso   1.00
C15    C     0.41290   0.20590   0.79220   0.01267  Uiso   1.00
C16    C     0.41170   0.08790   0.84950   0.01267  Uiso   1.00
C17    C     0.38860   0.87180   0.83150   0.01267  Uiso   1.00
C18    C     0.39110   0.23430   0.66770   0.01267  Uiso   1.00
C19    C     0.39080   0.99960   0.77910   0.01267  Uiso   1.00
C20    C     0.37160   0.14440   0.59560   0.01267  Uiso   1.00
C21    C     0.37270   0.02930   0.65190   0.01267  Uiso   1.00
C22    C     0.79410   0.58710   0.70780   0.01267  Uiso   1.00
C23    C     0.91210   0.58830   0.65050   0.01267  Uiso   1.00
C24    C     0.12820   0.61140   0.66850   0.01267  Uiso   1.00
C25    C     0.76570   0.60890   0.83230   0.01267  Uiso   1.00
C26    C     0.00040   0.60920   0.72090   0.01267  Uiso   1.00
C27    C     0.85560   0.62840   0.90440   0.01267  Uiso   1.00
C28    C     0.97070   0.62730   0.84810   0.01267  Uiso   1.00
N1     N     0.57040   0.68700   0.16520   0.01267  Uiso   1.00
N2     N     0.58030   0.60090   0.25870   0.01267  Uiso   1.00
N3     N     0.60410   0.64370   0.36060   0.01267  Uiso   1.00
N4     N     0.31300   0.42960   0.33480   0.01267  Uiso   1.00
N5     N     0.39910   0.41970   0.24130   0.01267  Uiso   1.00
N6     N     0.35630   0.39590   0.13940   0.01267  Uiso   1.00
N7     N     0.42960   0.31300   0.83480   0.01267  Uiso   1.00
N8     N     0.41970   0.39910   0.74130   0.01267  Uiso   1.00
N9     N     0.39590   0.35630   0.63940   0.01267  Uiso   1.00
N10    N     0.68700   0.57040   0.66520   0.01267  Uiso   1.00
N11    N     0.60090   0.58030   0.75870   0.01267  Uiso   1.00
N12    N     0.64370   0.60410   0.86060   0.01267  Uiso   1.00
O1     O     0.60415   0.43795   0.06780   0.01267  Uiso   1.00
O2     O     0.57520   0.16280   0.05930   0.01267  Uiso   1.00
O3     O     0.64730   0.19590   0.23370   0.01267  Uiso   1.00
O4     O     0.56205   0.39585   0.43220   0.01267  Uiso   1.00
O5     O     0.83720   0.42480   0.44070   0.01267  Uiso   1.00
O6     O     0.80410   0.35270   0.26630   0.01267  Uiso   1.00
O7     O     0.39585   0.56205   0.93220   0.01267  Uiso   1.00
O8     O     0.42480   0.83720   0.94070   0.01267  Uiso   1.00
O9     O     0.35270   0.80410   0.76630   0.01267  Uiso   1.00
O10    O     0.43795   0.60415   0.56780   0.01267  Uiso   1.00
O11    O     0.16280   0.57520   0.55930   0.01267  Uiso   1.00
O12    O     0.19590   0.64730   0.73370   0.01267  Uiso   1.00
