data_RUPRUQ_clean_h
_audit_creation_date              2014-07-02
_audit_creation_method            'Materials Studio'
_symmetry_space_group_name_H-M    'P1'
_symmetry_Int_Tables_number       1
_symmetry_cell_setting            triclinic
loop_
_symmetry_equiv_pos_as_xyz
  x,y,z
_cell_length_a                    16.0093
_cell_length_b                    16.0093
_cell_length_c                    16.0093
_cell_angle_alpha                 69.0387
_cell_angle_beta                  71.2687
_cell_angle_gamma                 108.7310
loop_
_atom_site_label
_atom_site_type_symbol
_atom_site_fract_x
_atom_site_fract_y
_atom_site_fract_z
_atom_site_U_iso_or_equiv
_atom_site_adp_type
_atom_site_occupancy
Ti1    Ti    0.71770   0.42600   0.70830   0.01267  Uiso   1.00
Ti2    Ti    0.28230   0.57400   0.29170   0.01267  Uiso   1.00
Ti3    Ti    0.86570   0.29170   0.42600   0.01267  Uiso   1.00
Ti4    Ti    0.13430   0.70830   0.57400   0.01267  Uiso   1.00
Ti5    Ti    0.13430   0.42600   0.29170   0.01267  Uiso   1.00
Ti6    Ti    0.86570   0.57400   0.70830   0.01267  Uiso   1.00
Ti7    Ti    0.71770   0.29170   0.57400   0.01267  Uiso   1.00
Ti8    Ti    0.28230   0.70830   0.42600   0.01267  Uiso   1.00
C1     C     0.51090   0.00220   0.91170   0.01267  Uiso   1.00
C2     C     0.48910   0.57740   0.50870   0.01267  Uiso   1.00
C3     C     0.08610   0.08830   0.42260   0.01267  Uiso   1.00
C4     C     0.91390   0.49130   0.99780   0.01267  Uiso   1.00
C5     C     0.91390   0.42260   0.08830   0.01267  Uiso   1.00
C6     C     0.08610   0.99780   0.49130   0.01267  Uiso   1.00
C7     C     0.51090   0.50870   0.57740   0.01267  Uiso   1.00
C8     C     0.48910   0.91170   0.00220   0.01267  Uiso   1.00
C9     C     0.48910   0.99780   0.08830   0.01267  Uiso   1.00
C10    C     0.51090   0.42260   0.49130   0.01267  Uiso   1.00
C11    C     0.91390   0.91170   0.57740   0.01267  Uiso   1.00
C12    C     0.08610   0.50870   0.00220   0.01267  Uiso   1.00
C13    C     0.08610   0.57740   0.91170   0.01267  Uiso   1.00
C14    C     0.91390   0.00220   0.50870   0.01267  Uiso   1.00
C15    C     0.48910   0.49130   0.42260   0.01267  Uiso   1.00
C16    C     0.51090   0.08830   0.99780   0.01267  Uiso   1.00
C17    C     0.46630   0.42950   0.96320   0.01267  Uiso   1.00
C18    C     0.53370   0.57050   0.03680   0.01267  Uiso   1.00
C19    C     0.60730   0.03680   0.42950   0.01267  Uiso   1.00
C20    C     0.39270   0.96320   0.57050   0.01267  Uiso   1.00
C21    C     0.39270   0.42950   0.03680   0.01267  Uiso   1.00
C22    C     0.60730   0.57050   0.96320   0.01267  Uiso   1.00
C23    C     0.46630   0.03680   0.57050   0.01267  Uiso   1.00
C24    C     0.53370   0.96320   0.42950   0.01267  Uiso   1.00
C25    C     0.64930   0.50000   0.85070   0.01267  Uiso   1.00
C26    C     0.57350   0.50000   0.92650   0.01267  Uiso   1.00
C27    C     0.35070   0.50000   0.14930   0.01267  Uiso   1.00
C28    C     0.42650   0.50000   0.07350   0.01267  Uiso   1.00
C29    C     0.64930   0.14930   0.50000   0.01267  Uiso   1.00
C30    C     0.57350   0.07350   0.50000   0.01267  Uiso   1.00
C31    C     0.35070   0.85070   0.50000   0.01267  Uiso   1.00
C32    C     0.42650   0.92650   0.50000   0.01267  Uiso   1.00
C33    C     0.61200   0.20830   0.79170   0.01267  Uiso   1.00
C34    C     0.55500   0.09840   0.90160   0.01267  Uiso   1.00
C35    C     0.38800   0.59630   0.40370   0.01267  Uiso   1.00
C36    C     0.44500   0.54340   0.45660   0.01267  Uiso   1.00
C37    C     0.00000   0.20830   0.40370   0.01267  Uiso   1.00
C38    C     0.00000   0.09840   0.45660   0.01267  Uiso   1.00
C39    C     0.00000   0.59630   0.79170   0.01267  Uiso   1.00
C40    C     0.00000   0.54340   0.90160   0.01267  Uiso   1.00
C41    C     0.00000   0.40370   0.20830   0.01267  Uiso   1.00
C42    C     0.00000   0.45660   0.09840   0.01267  Uiso   1.00
C43    C     0.00000   0.79170   0.59630   0.01267  Uiso   1.00
C44    C     0.00000   0.90160   0.54340   0.01267  Uiso   1.00
C45    C     0.61200   0.40370   0.59630   0.01267  Uiso   1.00
C46    C     0.55500   0.45660   0.54340   0.01267  Uiso   1.00
C47    C     0.38800   0.79170   0.20830   0.01267  Uiso   1.00
C48    C     0.44500   0.90160   0.09840   0.01267  Uiso   1.00
O1     O     0.62990   0.28260   0.79910   0.01267  Uiso   1.00
O2     O     0.37010   0.57100   0.34730   0.01267  Uiso   1.00
O3     O     0.91830   0.20090   0.42900   0.01267  Uiso   1.00
O4     O     0.08170   0.65270   0.71740   0.01267  Uiso   1.00
O5     O     0.08170   0.42900   0.20090   0.01267  Uiso   1.00
O6     O     0.91830   0.71740   0.65270   0.01267  Uiso   1.00
O7     O     0.62990   0.34730   0.57100   0.01267  Uiso   1.00
O8     O     0.37010   0.79910   0.28260   0.01267  Uiso   1.00
O9     O     0.37010   0.71740   0.20090   0.01267  Uiso   1.00
O10    O     0.62990   0.42900   0.65270   0.01267  Uiso   1.00
O11    O     0.08170   0.79910   0.57100   0.01267  Uiso   1.00
O12    O     0.91830   0.34730   0.28260   0.01267  Uiso   1.00
O13    O     0.91830   0.57100   0.79910   0.01267  Uiso   1.00
O14    O     0.08170   0.28260   0.34730   0.01267  Uiso   1.00
O15    O     0.37010   0.65270   0.42900   0.01267  Uiso   1.00
O16    O     0.62990   0.20090   0.71740   0.01267  Uiso   1.00
O17    O     0.63090   0.44200   0.81110   0.01267  Uiso   1.00
O18    O     0.36910   0.55800   0.18890   0.01267  Uiso   1.00
O19    O     0.74690   0.18890   0.44200   0.01267  Uiso   1.00
O20    O     0.25310   0.81110   0.55800   0.01267  Uiso   1.00
O21    O     0.25310   0.44200   0.18890   0.01267  Uiso   1.00
O22    O     0.74690   0.55800   0.81110   0.01267  Uiso   1.00
O23    O     0.63090   0.18890   0.55800   0.01267  Uiso   1.00
O24    O     0.36910   0.81110   0.44200   0.01267  Uiso   1.00
O25    O     0.81810   0.42650   0.75540   0.01267  Uiso   1.00
O26    O     0.18190   0.42650   0.39160   0.01267  Uiso   1.00
O27    O     0.81810   0.24460   0.57350   0.01267  Uiso   1.00
O28    O     0.18190   0.60840   0.57350   0.01267  Uiso   1.00
O29    O     0.18190   0.57350   0.24460   0.01267  Uiso   1.00
O30    O     0.81810   0.57350   0.60840   0.01267  Uiso   1.00
O31    O     0.81810   0.39160   0.42650   0.01267  Uiso   1.00
O32    O     0.18190   0.75540   0.42650   0.01267  Uiso   1.00
O33    O     0.78520   0.39260   0.60740   0.01267  Uiso   1.00
O34    O     0.21480   0.60740   0.39260   0.01267  Uiso   1.00
O35    O     0.00000   0.39260   0.39260   0.01267  Uiso   1.00
O36    O     0.00000   0.60740   0.60740   0.01267  Uiso   1.00
H1     H     0.49176   0.99275   0.85178   0.01267  Uiso   1.00
H2     H     0.50824   0.65645   0.49901   0.01267  Uiso   1.00
H3     H     0.15546   0.14822   0.34355   0.01267  Uiso   1.00
H4     H     0.84454   0.50099   0.00725   0.01267  Uiso   1.00
H5     H     0.84454   0.34355   0.14822   0.01267  Uiso   1.00
H6     H     0.15546   0.00725   0.50099   0.01267  Uiso   1.00
H7     H     0.49176   0.49901   0.65645   0.01267  Uiso   1.00
H8     H     0.50824   0.85178   0.99275   0.01267  Uiso   1.00
H9     H     0.50824   0.00725   0.14822   0.01267  Uiso   1.00
H10    H     0.49176   0.34355   0.50099   0.01267  Uiso   1.00
H11    H     0.84454   0.85178   0.65645   0.01267  Uiso   1.00
H12    H     0.15546   0.49901   0.99275   0.01267  Uiso   1.00
H13    H     0.15546   0.65645   0.85178   0.01267  Uiso   1.00
H14    H     0.84454   0.99275   0.49901   0.01267  Uiso   1.00
H15    H     0.50824   0.50099   0.34355   0.01267  Uiso   1.00
H16    H     0.49176   0.14822   0.00725   0.01267  Uiso   1.00
H17    H     0.44393   0.37658   0.93264   0.01267  Uiso   1.00
H18    H     0.55607   0.62342   0.06736   0.01267  Uiso   1.00
H19    H     0.69078   0.06736   0.37658   0.01267  Uiso   1.00
H20    H     0.30922   0.93264   0.62342   0.01267  Uiso   1.00
H21    H     0.30922   0.37658   0.06736   0.01267  Uiso   1.00
H22    H     0.69078   0.62342   0.93264   0.01267  Uiso   1.00
H23    H     0.44393   0.06736   0.62342   0.01267  Uiso   1.00
H24    H     0.55607   0.93264   0.37658   0.01267  Uiso   1.00
