data_SABVOH01_manual
_audit_creation_date              2014-07-02
_audit_creation_method            'Materials Studio'
_symmetry_space_group_name_H-M    'PNMA'
_symmetry_Int_Tables_number       62
_symmetry_cell_setting            orthorhombic
loop_
_symmetry_equiv_pos_as_xyz
  x,y,z
  -x+1/2,-y,z+1/2
  -x,y+1/2,-z
  x+1/2,-y+1/2,-z+1/2
  -x,-y,-z
  x+1/2,y,-z+1/2
  x,-y+1/2,z
  -x+1/2,y+1/2,z+1/2
_cell_length_a                    17.0190
_cell_length_b                    6.5844
_cell_length_c                    12.2620
_cell_angle_alpha                 90.0000
_cell_angle_beta                  90.0000
_cell_angle_gamma                 90.0000
loop_
_atom_site_label
_atom_site_type_symbol
_atom_site_fract_x
_atom_site_fract_y
_atom_site_fract_z
_atom_site_U_iso_or_equiv
_atom_site_adp_type
_atom_site_occupancy
O2     O     0.07230  -0.07990  -0.10917   0.00000  Uiso   1.00
O3     O     0.41325  -0.07980  -0.41394   0.00000  Uiso   1.00
C3     C     0.27391  -0.06830  -0.29870   0.00000  Uiso   1.00
H2     H     0.29660   0.05400  -0.32000   0.00000  Uiso   1.00
C6     C     0.20527  -0.06820  -0.23800   0.00000  Uiso   1.00
H3     H     0.18230   0.05410  -0.21750   0.00000  Uiso   1.00
Al1    Al    0.00000   0.00000   0.00000   0.00000  Uiso   1.00
O1     O     0.00511  -0.25000   0.06418   0.00000  Uiso   1.00
H1     H     0.01700  -0.25000   0.12840   0.00000  Uiso   1.00
C1     C     0.38409  -0.25000  -0.39010   0.00000  Uiso   1.00
C2     C     0.30865  -0.25000  -0.32770   0.00000  Uiso   1.00
C4     C     0.09934  -0.25000  -0.13710   0.00000  Uiso   1.00
C5     C     0.17087  -0.25000  -0.20770   0.00000  Uiso   1.00
loop_
_geom_bond_atom_site_label_1
_geom_bond_atom_site_label_2
_geom_bond_distance
_geom_bond_site_symmetry_2
_ccdc_geom_bond_type
O2     Al1     1.893   .     S
O2     C4      1.258   .     A
O3     C1      1.260   .     A
O3     Al1     1.889   2_554 S
C3     H2      0.930   .     S
C3     C6      1.385   .     A
C3     C2      1.381   .     A
C6     H3      0.930   .     S
C6     C5      1.383   .     A
Al1    O2      1.893   5     S
Al1    O1      1.827   .     S
Al1    O1      1.827   3     S
Al1    O3      1.889   2     S
Al1    O3      1.889   6_454 S
O1     Al1     1.827   3_545 S
O1     H1      0.813   .     S
C1     O3      1.260   7_545 A
C1     C2      1.495   .     S
C2     C3      1.381   7_545 A
C4     O2      1.258   7_545 A
C4     C5      1.494   .     S
C5     C6      1.383   7_545 A
