data_SADLOA_clean
_audit_creation_date              2014-07-02
_audit_creation_method            'Materials Studio'
_symmetry_space_group_name_H-M    'P1'
_symmetry_Int_Tables_number       1
_symmetry_cell_setting            triclinic
loop_
_symmetry_equiv_pos_as_xyz
  x,y,z
_cell_length_a                    10.4520
_cell_length_b                    10.4520
_cell_length_c                    13.8486
_cell_angle_alpha                 90.0000
_cell_angle_beta                  90.0000
_cell_angle_gamma                 90.0000
loop_
_atom_site_label
_atom_site_type_symbol
_atom_site_fract_x
_atom_site_fract_y
_atom_site_fract_z
_atom_site_U_iso_or_equiv
_atom_site_adp_type
_atom_site_occupancy
Nd1    Nd    0.87810   0.12190   0.12500   0.01267  Uiso   1.00
Nd2    Nd    0.12190   0.87810   0.62500   0.01267  Uiso   1.00
Nd3    Nd    0.87810   0.87810   0.37500   0.01267  Uiso   1.00
Nd4    Nd    0.12190   0.12190   0.87500   0.01267  Uiso   1.00
H1     H     0.93730   0.46290   0.36410   0.01267  Uiso   1.00
H2     H     0.06270   0.53710   0.86410   0.01267  Uiso   1.00
H3     H     0.53710   0.93730   0.61410   0.01267  Uiso   1.00
H4     H     0.46290   0.06270   0.11410   0.01267  Uiso   1.00
H5     H     0.06270   0.46290   0.63590   0.01267  Uiso   1.00
H6     H     0.93730   0.53710   0.13590   0.01267  Uiso   1.00
H7     H     0.46290   0.93730   0.38590   0.01267  Uiso   1.00
H8     H     0.53710   0.06270   0.88590   0.01267  Uiso   1.00
H9     H     0.00000   0.13250   0.50000   0.01267  Uiso   1.00
H10    H     0.00000   0.86750   0.00000   0.01267  Uiso   1.00
H11    H     0.86750   0.00000   0.75000   0.01267  Uiso   1.00
H12    H     0.13250   0.00000   0.25000   0.01267  Uiso   1.00
C1     C     0.92990   0.21250   0.32910   0.01267  Uiso   1.00
C2     C     0.96620   0.28300   0.41670   0.01267  Uiso   1.00
C3     C     0.96370   0.41770   0.41840   0.01267  Uiso   1.00
C4     C     0.07010   0.78750   0.82910   0.01267  Uiso   1.00
C5     C     0.03380   0.71700   0.91670   0.01267  Uiso   1.00
C6     C     0.03630   0.58230   0.91840   0.01267  Uiso   1.00
C7     C     0.78750   0.92990   0.57910   0.01267  Uiso   1.00
C8     C     0.71700   0.96620   0.66670   0.01267  Uiso   1.00
C9     C     0.58230   0.96370   0.66840   0.01267  Uiso   1.00
C10    C     0.21250   0.07010   0.07910   0.01267  Uiso   1.00
C11    C     0.28300   0.03380   0.16670   0.01267  Uiso   1.00
C12    C     0.41770   0.03630   0.16840   0.01267  Uiso   1.00
C13    C     0.07010   0.21250   0.67090   0.01267  Uiso   1.00
C14    C     0.03380   0.28300   0.58330   0.01267  Uiso   1.00
C15    C     0.03630   0.41770   0.58160   0.01267  Uiso   1.00
C16    C     0.92990   0.78750   0.17090   0.01267  Uiso   1.00
C17    C     0.96620   0.71700   0.08330   0.01267  Uiso   1.00
C18    C     0.96370   0.58230   0.08160   0.01267  Uiso   1.00
C19    C     0.21250   0.92990   0.42090   0.01267  Uiso   1.00
C20    C     0.28300   0.96620   0.33330   0.01267  Uiso   1.00
C21    C     0.41770   0.96370   0.33160   0.01267  Uiso   1.00
C22    C     0.78750   0.07010   0.92090   0.01267  Uiso   1.00
C23    C     0.71700   0.03380   0.83330   0.01267  Uiso   1.00
C24    C     0.58230   0.03630   0.83160   0.01267  Uiso   1.00
C25    C     0.00000   0.22150   0.50000   0.01267  Uiso   1.00
C26    C     0.00000   0.48220   0.50000   0.01267  Uiso   1.00
C27    C     0.00000   0.62830   0.50000   0.01267  Uiso   1.00
C28    C     0.00000   0.77850   0.00000   0.01267  Uiso   1.00
C29    C     0.00000   0.51780   0.00000   0.01267  Uiso   1.00
C30    C     0.00000   0.37170   0.00000   0.01267  Uiso   1.00
C31    C     0.77850   0.00000   0.75000   0.01267  Uiso   1.00
C32    C     0.51780   0.00000   0.75000   0.01267  Uiso   1.00
C33    C     0.37170   0.00000   0.75000   0.01267  Uiso   1.00
C34    C     0.22150   0.00000   0.25000   0.01267  Uiso   1.00
C35    C     0.48220   0.00000   0.25000   0.01267  Uiso   1.00
C36    C     0.62830   0.00000   0.25000   0.01267  Uiso   1.00
O1     O     0.91670   0.09640   0.33060   0.01267  Uiso   1.00
O2     O     0.91820   0.27460   0.25220   0.01267  Uiso   1.00
O3     O     0.91810   0.67910   0.44800   0.01267  Uiso   1.00
O4     O     0.08330   0.90360   0.83060   0.01267  Uiso   1.00
O5     O     0.08180   0.72540   0.75220   0.01267  Uiso   1.00
O6     O     0.08190   0.32090   0.94800   0.01267  Uiso   1.00
O7     O     0.90360   0.91670   0.58060   0.01267  Uiso   1.00
O8     O     0.72540   0.91820   0.50220   0.01267  Uiso   1.00
O9     O     0.32090   0.91810   0.69800   0.01267  Uiso   1.00
O10    O     0.09640   0.08330   0.08060   0.01267  Uiso   1.00
O11    O     0.27460   0.08180   0.00220   0.01267  Uiso   1.00
O12    O     0.67910   0.08190   0.19800   0.01267  Uiso   1.00
O13    O     0.08330   0.09640   0.66940   0.01267  Uiso   1.00
O14    O     0.08180   0.27460   0.74780   0.01267  Uiso   1.00
O15    O     0.08190   0.67910   0.55200   0.01267  Uiso   1.00
O16    O     0.91670   0.90360   0.16940   0.01267  Uiso   1.00
O17    O     0.91820   0.72540   0.24780   0.01267  Uiso   1.00
O18    O     0.91810   0.32090   0.05200   0.01267  Uiso   1.00
O19    O     0.09640   0.91670   0.41940   0.01267  Uiso   1.00
O20    O     0.27460   0.91820   0.49780   0.01267  Uiso   1.00
O21    O     0.67910   0.91810   0.30200   0.01267  Uiso   1.00
O22    O     0.90360   0.08330   0.91940   0.01267  Uiso   1.00
O23    O     0.72540   0.08180   0.99780   0.01267  Uiso   1.00
O24    O     0.32090   0.08190   0.80200   0.01267  Uiso   1.00
