data_SADMUH_clean
_audit_creation_date              2014-07-02
_audit_creation_method            'Materials Studio'
_symmetry_space_group_name_H-M    'P1'
_symmetry_Int_Tables_number       1
_symmetry_cell_setting            triclinic
loop_
_symmetry_equiv_pos_as_xyz
  x,y,z
_cell_length_a                    6.9351
_cell_length_b                    11.2918
_cell_length_c                    11.2918
_cell_angle_alpha                 79.1777
_cell_angle_beta                  72.1164
_cell_angle_gamma                 72.1164
loop_
_atom_site_label
_atom_site_type_symbol
_atom_site_fract_x
_atom_site_fract_y
_atom_site_fract_z
_atom_site_U_iso_or_equiv
_atom_site_adp_type
_atom_site_occupancy
Fe1    Fe    0.50000   1.00000   0.50000   0.01267  Uiso   1.00
Fe2    Fe    0.00000   0.00000   0.50000   0.01267  Uiso   1.00
H1     H     0.25980   0.99980   0.89000   0.01267  Uiso   1.00
H2     H     0.24020   0.61000   0.50020   0.01267  Uiso   1.00
H3     H     0.35040   0.39000   0.49980   0.01267  Uiso   1.00
H4     H     0.14960   0.00020   0.11000   0.01267  Uiso   1.00
H5     H     0.74020   0.00020   0.11000   0.01267  Uiso   1.00
H6     H     0.75980   0.39000   0.49980   0.01267  Uiso   1.00
H7     H     0.64960   0.61000   0.50020   0.01267  Uiso   1.00
H8     H     0.85040   0.99980   0.89000   0.01267  Uiso   1.00
C1     C     0.35940   0.99980   0.93560   0.01267  Uiso   1.00
C2     C     0.14060   0.56440   0.50020   0.01267  Uiso   1.00
C3     C     0.20520   0.43560   0.49980   0.01267  Uiso   1.00
C4     C     0.29480   0.00020   0.06440   0.01267  Uiso   1.00
C5     C     0.64060   0.00020   0.06440   0.01267  Uiso   1.00
C6     C     0.85940   0.43560   0.49980   0.01267  Uiso   1.00
C7     C     0.79480   0.56440   0.50020   0.01267  Uiso   1.00
C8     C     0.70520   0.99980   0.93560   0.01267  Uiso   1.00
C9     C     0.56460   0.99970   0.87110   0.01267  Uiso   1.00
C10    C     0.63310   0.99940   0.73440   0.01267  Uiso   1.00
C11    C     0.93540   0.62890   0.50030   0.01267  Uiso   1.00
C12    C     0.86690   0.76560   0.50060   0.01267  Uiso   1.00
C13    C     0.06460   0.37110   0.49970   0.01267  Uiso   1.00
C14    C     0.13310   0.23440   0.49940   0.01267  Uiso   1.00
C15    C     0.43540   0.00030   0.12890   0.01267  Uiso   1.00
C16    C     0.36690   0.00060   0.26560   0.01267  Uiso   1.00
O1     O     0.50410   0.99930   0.67530   0.01267  Uiso   1.00
O2     O     0.99590   0.82470   0.50070   0.01267  Uiso   1.00
O3     O     0.32130   0.17530   0.49930   0.01267  Uiso   1.00
O4     O     0.17870   0.00070   0.32470   0.01267  Uiso   1.00
O5     O     0.49590   0.00070   0.32470   0.01267  Uiso   1.00
O6     O     0.00410   0.17530   0.49930   0.01267  Uiso   1.00
O7     O     0.67870   0.82470   0.50070   0.01267  Uiso   1.00
O8     O     0.82130   0.99930   0.67530   0.01267  Uiso   1.00
O9     O     0.75000   0.06190   0.43810   0.01267  Uiso   1.00
O10    O     0.25000   0.93810   0.56190   0.01267  Uiso   1.00
