data_SAMLAV01_clean
_audit_creation_date              2014-07-02
_audit_creation_method            'Materials Studio'
_symmetry_space_group_name_H-M    'P1'
_symmetry_Int_Tables_number       1
_symmetry_cell_setting            triclinic
loop_
_symmetry_equiv_pos_as_xyz
  x,y,z
_cell_length_a                    7.4058
_cell_length_b                    14.2332
_cell_length_c                    20.7757
_cell_angle_alpha                 90.0000
_cell_angle_beta                  90.0000
_cell_angle_gamma                 99.1320
loop_
_atom_site_label
_atom_site_type_symbol
_atom_site_fract_x
_atom_site_fract_y
_atom_site_fract_z
_atom_site_U_iso_or_equiv
_atom_site_adp_type
_atom_site_occupancy
Cd1    Cd    0.46179   0.39866   0.56419   0.01267  Uiso   1.00
Cd2    Cd    0.53821   0.10134   0.06419   0.01267  Uiso   1.00
Cd3    Cd    0.53821   0.60134   0.43581   0.01267  Uiso   1.00
Cd4    Cd    0.46179   0.89866   0.93581   0.01267  Uiso   1.00
H1     H     0.51880   0.33000   0.90070   0.01267  Uiso   1.00
H2     H     0.49060   0.07070   0.81660   0.01267  Uiso   1.00
H3     H     0.46250   0.14200   0.71570   0.01267  Uiso   1.00
H4     H     0.83790   0.52360   0.60770   0.01267  Uiso   1.00
H5     H     0.15500   0.52730   0.60710   0.01267  Uiso   1.00
H6     H     0.08850   0.28590   0.50950   0.01267  Uiso   1.00
H7     H     0.77280   0.28410   0.51030   0.01267  Uiso   1.00
H8     H     0.48120   0.17000   0.40070   0.01267  Uiso   1.00
H9     H     0.50940   0.42930   0.31660   0.01267  Uiso   1.00
H10    H     0.53750   0.35800   0.21570   0.01267  Uiso   1.00
H11    H     0.16210   0.97640   0.10770   0.01267  Uiso   1.00
H12    H     0.84500   0.97270   0.10710   0.01267  Uiso   1.00
H13    H     0.91150   0.21410   0.00950   0.01267  Uiso   1.00
H14    H     0.22720   0.21590   0.01030   0.01267  Uiso   1.00
H15    H     0.48120   0.67000   0.09930   0.01267  Uiso   1.00
H16    H     0.50940   0.92930   0.18340   0.01267  Uiso   1.00
H17    H     0.53750   0.85800   0.28430   0.01267  Uiso   1.00
H18    H     0.16210   0.47640   0.39230   0.01267  Uiso   1.00
H19    H     0.84500   0.47270   0.39290   0.01267  Uiso   1.00
H20    H     0.91150   0.71410   0.49050   0.01267  Uiso   1.00
H21    H     0.22720   0.71590   0.48970   0.01267  Uiso   1.00
H22    H     0.51880   0.83000   0.59930   0.01267  Uiso   1.00
H23    H     0.49060   0.57070   0.68340   0.01267  Uiso   1.00
H24    H     0.46250   0.64200   0.78430   0.01267  Uiso   1.00
H25    H     0.83790   0.02360   0.89230   0.01267  Uiso   1.00
H26    H     0.15500   0.02730   0.89290   0.01267  Uiso   1.00
H27    H     0.08850   0.78590   0.99050   0.01267  Uiso   1.00
H28    H     0.77280   0.78410   0.98970   0.01267  Uiso   1.00
C1     C     0.46510   0.27600   0.74800   0.01267  Uiso   1.00
C2     C     0.48100   0.32930   0.80390   0.01267  Uiso   1.00
C3     C     0.50560   0.29090   0.86350   0.01267  Uiso   1.00
C4     C     0.51070   0.19360   0.86830   0.01267  Uiso   1.00
C5     C     0.49090   0.13730   0.81360   0.01267  Uiso   1.00
C6     C     0.47140   0.18010   0.75340   0.01267  Uiso   1.00
C7     C     0.45620   0.32000   0.68180   0.01267  Uiso   1.00
C8     C     0.53270   0.15290   0.93380   0.01267  Uiso   1.00
C9     C     0.88990   0.47400   0.58790   0.01267  Uiso   1.00
C10    C     0.07850   0.47500   0.58780   0.01267  Uiso   1.00
C11    C     0.03990   0.33520   0.53110   0.01267  Uiso   1.00
C12    C     0.85190   0.33410   0.53100   0.01267  Uiso   1.00
C13    C     0.53490   0.22400   0.24800   0.01267  Uiso   1.00
C14    C     0.51900   0.17070   0.30390   0.01267  Uiso   1.00
C15    C     0.49440   0.20910   0.36350   0.01267  Uiso   1.00
C16    C     0.48930   0.30640   0.36830   0.01267  Uiso   1.00
C17    C     0.50910   0.36270   0.31360   0.01267  Uiso   1.00
C18    C     0.52860   0.31990   0.25340   0.01267  Uiso   1.00
C19    C     0.54380   0.18000   0.18180   0.01267  Uiso   1.00
C20    C     0.46730   0.34710   0.43380   0.01267  Uiso   1.00
C21    C     0.11010   0.02600   0.08790   0.01267  Uiso   1.00
C22    C     0.92150   0.02500   0.08780   0.01267  Uiso   1.00
C23    C     0.96010   0.16480   0.03110   0.01267  Uiso   1.00
C24    C     0.14810   0.16590   0.03100   0.01267  Uiso   1.00
C25    C     0.53490   0.72400   0.25200   0.01267  Uiso   1.00
C26    C     0.51900   0.67070   0.19610   0.01267  Uiso   1.00
C27    C     0.49440   0.70910   0.13650   0.01267  Uiso   1.00
C28    C     0.48930   0.80640   0.13170   0.01267  Uiso   1.00
C29    C     0.50910   0.86270   0.18640   0.01267  Uiso   1.00
C30    C     0.52860   0.81990   0.24660   0.01267  Uiso   1.00
C31    C     0.54380   0.68000   0.31820   0.01267  Uiso   1.00
C32    C     0.46730   0.84710   0.06620   0.01267  Uiso   1.00
C33    C     0.11010   0.52600   0.41210   0.01267  Uiso   1.00
C34    C     0.92150   0.52500   0.41220   0.01267  Uiso   1.00
C35    C     0.96010   0.66480   0.46890   0.01267  Uiso   1.00
C36    C     0.14810   0.66590   0.46900   0.01267  Uiso   1.00
C37    C     0.46510   0.77600   0.75200   0.01267  Uiso   1.00
C38    C     0.48100   0.82930   0.69610   0.01267  Uiso   1.00
C39    C     0.50560   0.79090   0.63650   0.01267  Uiso   1.00
C40    C     0.51070   0.69360   0.63170   0.01267  Uiso   1.00
C41    C     0.49090   0.63730   0.68640   0.01267  Uiso   1.00
C42    C     0.47140   0.68010   0.74660   0.01267  Uiso   1.00
C43    C     0.45620   0.82000   0.81820   0.01267  Uiso   1.00
C44    C     0.53270   0.65290   0.56620   0.01267  Uiso   1.00
C45    C     0.88990   0.97400   0.91210   0.01267  Uiso   1.00
C46    C     0.07850   0.97500   0.91220   0.01267  Uiso   1.00
C47    C     0.03990   0.83520   0.96890   0.01267  Uiso   1.00
C48    C     0.85190   0.83410   0.96900   0.01267  Uiso   1.00
N1     N     0.44480   0.42870   0.80540   0.01267  Uiso   1.00
N2     N     0.78630   0.40200   0.55960   0.01267  Uiso   1.00
N3     N     0.15630   0.40510   0.56140   0.01267  Uiso   1.00
N4     N     0.55520   0.07130   0.30540   0.01267  Uiso   1.00
N5     N     0.21370   0.09800   0.05960   0.01267  Uiso   1.00
N6     N     0.84370   0.09490   0.06140   0.01267  Uiso   1.00
N7     N     0.55520   0.57130   0.19460   0.01267  Uiso   1.00
N8     N     0.21370   0.59800   0.44040   0.01267  Uiso   1.00
N9     N     0.84370   0.59490   0.43860   0.01267  Uiso   1.00
N10    N     0.44480   0.92870   0.69460   0.01267  Uiso   1.00
N11    N     0.78630   0.90200   0.94040   0.01267  Uiso   1.00
N12    N     0.15630   0.90510   0.93860   0.01267  Uiso   1.00
O1     O     0.49830   0.40760   0.67620   0.01267  Uiso   1.00
O2     O     0.40590   0.26730   0.63610   0.01267  Uiso   1.00
O3     O     0.51470   0.06330   0.94110   0.01267  Uiso   1.00
O4     O     0.56430   0.20910   0.98090   0.01267  Uiso   1.00
O5     O     0.57370   0.48530   0.82450   0.01267  Uiso   1.00
O6     O     0.29400   0.44680   0.78520   0.01267  Uiso   1.00
O7     O     0.50170   0.09240   0.17620   0.01267  Uiso   1.00
O8     O     0.59410   0.23270   0.13610   0.01267  Uiso   1.00
O9     O     0.48530   0.43670   0.44110   0.01267  Uiso   1.00
O10    O     0.43570   0.29090   0.48090   0.01267  Uiso   1.00
O11    O     0.42630   0.01470   0.32450   0.01267  Uiso   1.00
O12    O     0.70600   0.05320   0.28520   0.01267  Uiso   1.00
O13    O     0.50170   0.59240   0.32380   0.01267  Uiso   1.00
O14    O     0.59410   0.73270   0.36390   0.01267  Uiso   1.00
O15    O     0.48530   0.93670   0.05890   0.01267  Uiso   1.00
O16    O     0.43570   0.79090   0.01910   0.01267  Uiso   1.00
O17    O     0.42630   0.51470   0.17550   0.01267  Uiso   1.00
O18    O     0.70600   0.55320   0.21480   0.01267  Uiso   1.00
O19    O     0.49830   0.90760   0.82380   0.01267  Uiso   1.00
O20    O     0.40590   0.76730   0.86390   0.01267  Uiso   1.00
O21    O     0.51470   0.56330   0.55890   0.01267  Uiso   1.00
O22    O     0.56430   0.70910   0.51910   0.01267  Uiso   1.00
O23    O     0.57370   0.98530   0.67550   0.01267  Uiso   1.00
O24    O     0.29400   0.94680   0.71480   0.01267  Uiso   1.00
