data_SAMLAV02_clean
_audit_creation_date              2014-07-02
_audit_creation_method            'Materials Studio'
_symmetry_space_group_name_H-M    'P1'
_symmetry_Int_Tables_number       1
_symmetry_cell_setting            triclinic
loop_
_symmetry_equiv_pos_as_xyz
  x,y,z
_cell_length_a                    7.4378
_cell_length_b                    14.3257
_cell_length_c                    20.9108
_cell_angle_alpha                 90.0000
_cell_angle_beta                  90.0000
_cell_angle_gamma                 92.6500
loop_
_atom_site_label
_atom_site_type_symbol
_atom_site_fract_x
_atom_site_fract_y
_atom_site_fract_z
_atom_site_U_iso_or_equiv
_atom_site_adp_type
_atom_site_occupancy
Cd1    Cd    0.48840   0.39800   0.56360   0.01267  Uiso   1.00
Cd2    Cd    0.51160   0.10200   0.06360   0.01267  Uiso   1.00
Cd3    Cd    0.51160   0.60200   0.43640   0.01267  Uiso   1.00
Cd4    Cd    0.48840   0.89800   0.93640   0.01267  Uiso   1.00
H1     H     0.50640   0.32170   0.89800   0.01267  Uiso   1.00
H2     H     0.48340   0.06740   0.81430   0.01267  Uiso   1.00
H3     H     0.49140   0.13820   0.71480   0.01267  Uiso   1.00
H4     H     0.84550   0.51660   0.61090   0.01267  Uiso   1.00
H5     H     0.15460   0.51720   0.61240   0.01267  Uiso   1.00
H6     H     0.13430   0.29310   0.50570   0.01267  Uiso   1.00
H7     H     0.82490   0.28990   0.50720   0.01267  Uiso   1.00
H8     H     0.49360   0.17830   0.39800   0.01267  Uiso   1.00
H9     H     0.51660   0.43260   0.31430   0.01267  Uiso   1.00
H10    H     0.50860   0.36180   0.21480   0.01267  Uiso   1.00
H11    H     0.15450   0.98340   0.11090   0.01267  Uiso   1.00
H12    H     0.84540   0.98280   0.11240   0.01267  Uiso   1.00
H13    H     0.86570   0.20690   0.00570   0.01267  Uiso   1.00
H14    H     0.17510   0.21010   0.00720   0.01267  Uiso   1.00
H15    H     0.49360   0.67830   0.10200   0.01267  Uiso   1.00
H16    H     0.51660   0.93260   0.18570   0.01267  Uiso   1.00
H17    H     0.50860   0.86180   0.28520   0.01267  Uiso   1.00
H18    H     0.15450   0.48340   0.38910   0.01267  Uiso   1.00
H19    H     0.84540   0.48280   0.38760   0.01267  Uiso   1.00
H20    H     0.86570   0.70690   0.49430   0.01267  Uiso   1.00
H21    H     0.17510   0.71010   0.49280   0.01267  Uiso   1.00
H22    H     0.50640   0.82170   0.60200   0.01267  Uiso   1.00
H23    H     0.48340   0.56740   0.68570   0.01267  Uiso   1.00
H24    H     0.49140   0.63820   0.78520   0.01267  Uiso   1.00
H25    H     0.84550   0.01660   0.88910   0.01267  Uiso   1.00
H26    H     0.15460   0.01720   0.88760   0.01267  Uiso   1.00
H27    H     0.13430   0.79310   0.99430   0.01267  Uiso   1.00
H28    H     0.82490   0.78990   0.99280   0.01267  Uiso   1.00
C1     C     0.48980   0.27230   0.74540   0.01267  Uiso   1.00
C2     C     0.49510   0.32590   0.80030   0.01267  Uiso   1.00
C3     C     0.50210   0.28400   0.86060   0.01267  Uiso   1.00
C4     C     0.50300   0.18910   0.86580   0.01267  Uiso   1.00
C5     C     0.49110   0.13360   0.81090   0.01267  Uiso   1.00
C6     C     0.49080   0.17600   0.75210   0.01267  Uiso   1.00
C7     C     0.48320   0.31670   0.68040   0.01267  Uiso   1.00
C8     C     0.50850   0.14630   0.93120   0.01267  Uiso   1.00
C9     C     0.90400   0.46860   0.58900   0.01267  Uiso   1.00
C10    C     0.08890   0.46950   0.58970   0.01267  Uiso   1.00
C11    C     0.07590   0.34020   0.52870   0.01267  Uiso   1.00
C12    C     0.89070   0.33860   0.52900   0.01267  Uiso   1.00
C13    C     0.51020   0.22770   0.24540   0.01267  Uiso   1.00
C14    C     0.50490   0.17410   0.30030   0.01267  Uiso   1.00
C15    C     0.49790   0.21600   0.36060   0.01267  Uiso   1.00
C16    C     0.49700   0.31090   0.36580   0.01267  Uiso   1.00
C17    C     0.50890   0.36640   0.31090   0.01267  Uiso   1.00
C18    C     0.50920   0.32400   0.25210   0.01267  Uiso   1.00
C19    C     0.51680   0.18330   0.18040   0.01267  Uiso   1.00
C20    C     0.49150   0.35370   0.43120   0.01267  Uiso   1.00
C21    C     0.09600   0.03140   0.08900   0.01267  Uiso   1.00
C22    C     0.91110   0.03050   0.08970   0.01267  Uiso   1.00
C23    C     0.92410   0.15980   0.02870   0.01267  Uiso   1.00
C24    C     0.10930   0.16140   0.02900   0.01267  Uiso   1.00
C25    C     0.51020   0.72770   0.25460   0.01267  Uiso   1.00
C26    C     0.50490   0.67410   0.19970   0.01267  Uiso   1.00
C27    C     0.49790   0.71600   0.13940   0.01267  Uiso   1.00
C28    C     0.49700   0.81090   0.13420   0.01267  Uiso   1.00
C29    C     0.50890   0.86640   0.18910   0.01267  Uiso   1.00
C30    C     0.50920   0.82400   0.24790   0.01267  Uiso   1.00
C31    C     0.51680   0.68330   0.31960   0.01267  Uiso   1.00
C32    C     0.49150   0.85370   0.06880   0.01267  Uiso   1.00
C33    C     0.09600   0.53140   0.41100   0.01267  Uiso   1.00
C34    C     0.91110   0.53050   0.41030   0.01267  Uiso   1.00
C35    C     0.92410   0.65980   0.47130   0.01267  Uiso   1.00
C36    C     0.10930   0.66140   0.47100   0.01267  Uiso   1.00
C37    C     0.48980   0.77230   0.75460   0.01267  Uiso   1.00
C38    C     0.49510   0.82590   0.69970   0.01267  Uiso   1.00
C39    C     0.50210   0.78400   0.63940   0.01267  Uiso   1.00
C40    C     0.50300   0.68910   0.63420   0.01267  Uiso   1.00
C41    C     0.49110   0.63360   0.68910   0.01267  Uiso   1.00
C42    C     0.49080   0.67600   0.74790   0.01267  Uiso   1.00
C43    C     0.48320   0.81670   0.81960   0.01267  Uiso   1.00
C44    C     0.50850   0.64630   0.56880   0.01267  Uiso   1.00
C45    C     0.90400   0.96860   0.91100   0.01267  Uiso   1.00
C46    C     0.08890   0.96950   0.91030   0.01267  Uiso   1.00
C47    C     0.07590   0.84020   0.97130   0.01267  Uiso   1.00
C48    C     0.89070   0.83860   0.97100   0.01267  Uiso   1.00
N1     N     0.48800   0.43550   0.80600   0.01267  Uiso   1.00
N2     N     0.80370   0.40320   0.55880   0.01267  Uiso   1.00
N3     N     0.17620   0.40510   0.55920   0.01267  Uiso   1.00
N4     N     0.51200   0.06450   0.30600   0.01267  Uiso   1.00
N5     N     0.19630   0.09680   0.05880   0.01267  Uiso   1.00
N6     N     0.82380   0.09490   0.05920   0.01267  Uiso   1.00
N7     N     0.51200   0.56450   0.19400   0.01267  Uiso   1.00
N8     N     0.19630   0.59680   0.44120   0.01267  Uiso   1.00
N9     N     0.82380   0.59490   0.44080   0.01267  Uiso   1.00
N10    N     0.48800   0.93550   0.69400   0.01267  Uiso   1.00
N11    N     0.80370   0.90320   0.94120   0.01267  Uiso   1.00
N12    N     0.17620   0.90510   0.94080   0.01267  Uiso   1.00
O1     O     0.49770   0.40120   0.67480   0.01267  Uiso   1.00
O2     O     0.47170   0.26590   0.63330   0.01267  Uiso   1.00
O3     O     0.50380   0.05980   0.93840   0.01267  Uiso   1.00
O4     O     0.51880   0.20180   0.97880   0.01267  Uiso   1.00
O5     O     0.64500   0.46370   0.80260   0.01267  Uiso   1.00
O6     O     0.33300   0.45530   0.79670   0.01267  Uiso   1.00
O7     O     0.50230   0.09880   0.17480   0.01267  Uiso   1.00
O8     O     0.52830   0.23410   0.13330   0.01267  Uiso   1.00
O9     O     0.49620   0.44020   0.43840   0.01267  Uiso   1.00
O10    O     0.48120   0.29820   0.47880   0.01267  Uiso   1.00
O11    O     0.35500   0.03630   0.30260   0.01267  Uiso   1.00
O12    O     0.66700   0.04470   0.29670   0.01267  Uiso   1.00
O13    O     0.50230   0.59880   0.32520   0.01267  Uiso   1.00
O14    O     0.52830   0.73410   0.36670   0.01267  Uiso   1.00
O15    O     0.49620   0.94020   0.06160   0.01267  Uiso   1.00
O16    O     0.48120   0.79820   0.02120   0.01267  Uiso   1.00
O17    O     0.35500   0.53630   0.19740   0.01267  Uiso   1.00
O18    O     0.66700   0.54470   0.20330   0.01267  Uiso   1.00
O19    O     0.49770   0.90120   0.82520   0.01267  Uiso   1.00
O20    O     0.47170   0.76590   0.86670   0.01267  Uiso   1.00
O21    O     0.50380   0.55980   0.56160   0.01267  Uiso   1.00
O22    O     0.51880   0.70180   0.52120   0.01267  Uiso   1.00
O23    O     0.64500   0.96370   0.69740   0.01267  Uiso   1.00
O24    O     0.33300   0.95530   0.70330   0.01267  Uiso   1.00
