data_SATBIA_charged
_audit_creation_date              2014-07-02
_audit_creation_method            'Materials Studio'
_symmetry_space_group_name_H-M    'P1'
_symmetry_Int_Tables_number       1
_symmetry_cell_setting            triclinic
loop_
_symmetry_equiv_pos_as_xyz
  x,y,z
_cell_length_a                    12.7204
_cell_length_b                    18.9452
_cell_length_c                    19.4378
_cell_angle_alpha                 90.0000
_cell_angle_beta                  101.7710
_cell_angle_gamma                 90.0000
loop_
_atom_site_label
_atom_site_type_symbol
_atom_site_fract_x
_atom_site_fract_y
_atom_site_fract_z
_atom_site_U_iso_or_equiv
_atom_site_adp_type
_atom_site_occupancy
Cu1    Cu    0.53620   0.67242   0.39223   0.01267  Uiso   1.00
Cu2    Cu    0.28727   0.31140   0.74364   0.01267  Uiso   1.00
Cu3    Cu    0.46380   0.67242   0.10777   0.01267  Uiso   1.00
Cu4    Cu    0.71273   0.31140   0.75636   0.01267  Uiso   1.00
Cu5    Cu    0.46380   0.32758   0.60777   0.01267  Uiso   1.00
Cu6    Cu    0.71273   0.68860   0.25636   0.01267  Uiso   1.00
Cu7    Cu    0.53620   0.32758   0.89223   0.01267  Uiso   1.00
Cu8    Cu    0.28727   0.68860   0.24364   0.01267  Uiso   1.00
Cu9    Cu    0.50000   0.82243   0.25000   0.01267  Uiso   1.00
Cu10   Cu    0.50000   0.17757   0.75000   0.01267  Uiso   1.00
H1     H     0.78470   0.45800   0.73890   0.01267  Uiso   1.00
H2     H     0.89990   0.51960   0.68360   0.01267  Uiso   1.00
H3     H     0.97910   0.34030   0.60380   0.01267  Uiso   1.00
H4     H     0.85930   0.28340   0.65800   0.01267  Uiso   1.00
H5     H     0.03720   0.52330   0.61310   0.01267  Uiso   1.00
H6     H     0.22180   0.41960   0.50710   0.01267  Uiso   1.00
H7     H     0.35610   0.44000   0.42970   0.01267  Uiso   1.00
H8     H     0.46550   0.51400   0.38400   0.01267  Uiso   1.00
H9     H     0.37980   0.67230   0.48390   0.01267  Uiso   1.00
H10    H     0.26680   0.60350   0.53020   0.01267  Uiso   1.00
H11    H     0.17570   0.28510   0.59270   0.01267  Uiso   1.00
H12    H     0.06370   0.20640   0.52670   0.01267  Uiso   1.00
H13    H     0.05290   0.09980   0.70010   0.01267  Uiso   1.00
H14    H     0.17390   0.17780   0.76090   0.01267  Uiso   1.00
H15    H     0.94160   0.05760   0.59150   0.01267  Uiso   1.00
H16    H     0.86180   0.07470   0.38650   0.01267  Uiso   1.00
H17    H     0.74380   0.02720   0.27810   0.01267  Uiso   1.00
H18    H     0.62440   0.94840   0.22340   0.01267  Uiso   1.00
H19    H     0.61630   0.85380   0.39830   0.01267  Uiso   1.00
H20    H     0.73110   0.93470   0.46020   0.01267  Uiso   1.00
H21    H     0.21530   0.45800   0.76110   0.01267  Uiso   1.00
H22    H     0.10010   0.51960   0.81640   0.01267  Uiso   1.00
H23    H     0.02090   0.34030   0.89620   0.01267  Uiso   1.00
H24    H     0.14070   0.28340   0.84200   0.01267  Uiso   1.00
H25    H     0.96280   0.52330   0.88690   0.01267  Uiso   1.00
H26    H     0.77820   0.41960   0.99290   0.01267  Uiso   1.00
H27    H     0.64390   0.44000   0.07030   0.01267  Uiso   1.00
H28    H     0.53450   0.51400   0.11600   0.01267  Uiso   1.00
H29    H     0.62020   0.67230   0.01610   0.01267  Uiso   1.00
H30    H     0.73320   0.60350   0.96980   0.01267  Uiso   1.00
H31    H     0.82430   0.28510   0.90730   0.01267  Uiso   1.00
H32    H     0.93630   0.20640   0.97330   0.01267  Uiso   1.00
H33    H     0.94710   0.09980   0.79990   0.01267  Uiso   1.00
H34    H     0.82610   0.17780   0.73910   0.01267  Uiso   1.00
H35    H     0.05840   0.05760   0.90850   0.01267  Uiso   1.00
H36    H     0.13820   0.07470   0.11350   0.01267  Uiso   1.00
H37    H     0.25620   0.02720   0.22190   0.01267  Uiso   1.00
H38    H     0.37560   0.94840   0.27660   0.01267  Uiso   1.00
H39    H     0.38370   0.85380   0.10170   0.01267  Uiso   1.00
H40    H     0.26890   0.93470   0.03980   0.01267  Uiso   1.00
H41    H     0.21530   0.54200   0.26110   0.01267  Uiso   1.00
H42    H     0.10010   0.48040   0.31640   0.01267  Uiso   1.00
H43    H     0.02090   0.65970   0.39620   0.01267  Uiso   1.00
H44    H     0.14070   0.71660   0.34200   0.01267  Uiso   1.00
H45    H     0.96280   0.47670   0.38690   0.01267  Uiso   1.00
H46    H     0.77820   0.58040   0.49290   0.01267  Uiso   1.00
H47    H     0.64390   0.56000   0.57030   0.01267  Uiso   1.00
H48    H     0.53450   0.48600   0.61600   0.01267  Uiso   1.00
H49    H     0.62020   0.32770   0.51610   0.01267  Uiso   1.00
H50    H     0.73320   0.39650   0.46980   0.01267  Uiso   1.00
H51    H     0.82430   0.71490   0.40730   0.01267  Uiso   1.00
H52    H     0.93630   0.79360   0.47330   0.01267  Uiso   1.00
H53    H     0.94710   0.90020   0.29990   0.01267  Uiso   1.00
H54    H     0.82610   0.82220   0.23910   0.01267  Uiso   1.00
H55    H     0.05840   0.94240   0.40850   0.01267  Uiso   1.00
H56    H     0.13820   0.92530   0.61350   0.01267  Uiso   1.00
H57    H     0.25620   0.97280   0.72190   0.01267  Uiso   1.00
H58    H     0.37560   0.05160   0.77660   0.01267  Uiso   1.00
H59    H     0.38370   0.14620   0.60170   0.01267  Uiso   1.00
H60    H     0.26890   0.06530   0.53980   0.01267  Uiso   1.00
H61    H     0.78470   0.54200   0.23890   0.01267  Uiso   1.00
H62    H     0.89990   0.48040   0.18360   0.01267  Uiso   1.00
H63    H     0.97910   0.65970   0.10380   0.01267  Uiso   1.00
H64    H     0.85930   0.71660   0.15800   0.01267  Uiso   1.00
H65    H     0.03720   0.47670   0.11310   0.01267  Uiso   1.00
H66    H     0.22180   0.58040   0.00710   0.01267  Uiso   1.00
H67    H     0.35610   0.56000   0.92970   0.01267  Uiso   1.00
H68    H     0.46550   0.48600   0.88400   0.01267  Uiso   1.00
H69    H     0.37980   0.32770   0.98390   0.01267  Uiso   1.00
H70    H     0.26680   0.39650   0.03020   0.01267  Uiso   1.00
H71    H     0.17570   0.71490   0.09270   0.01267  Uiso   1.00
H72    H     0.06370   0.79360   0.02670   0.01267  Uiso   1.00
H73    H     0.05290   0.90020   0.20010   0.01267  Uiso   1.00
H74    H     0.17390   0.82220   0.26090   0.01267  Uiso   1.00
H75    H     0.94160   0.94240   0.09150   0.01267  Uiso   1.00
H76    H     0.86180   0.92530   0.88650   0.01267  Uiso   1.00
H77    H     0.74380   0.97280   0.77810   0.01267  Uiso   1.00
H78    H     0.62440   0.05160   0.72340   0.01267  Uiso   1.00
H79    H     0.61630   0.14620   0.89830   0.01267  Uiso   1.00
H80    H     0.73110   0.06530   0.96020   0.01267  Uiso   1.00
W1     W     0.50000   0.67973   0.25000   0.01267  Uiso   1.00
W2     W     0.50000   0.32027   0.75000   0.01267  Uiso   1.00
C1     C     0.82390   0.43350   0.71120   0.01267  Uiso   1.00
C2     C     0.89460   0.47080   0.67850   0.01267  Uiso   1.00
C3     C     0.95590   0.43650   0.63930   0.01267  Uiso   1.00
C4     C     0.94080   0.36590   0.63140   0.01267  Uiso   1.00
C5     C     0.86850   0.33190   0.66420   0.01267  Uiso   1.00
C6     C     0.03350   0.47440   0.60810   0.01267  Uiso   1.00
C7     C     0.22350   0.46800   0.51490   0.01267  Uiso   1.00
C8     C     0.29900   0.51310   0.48590   0.01267  Uiso   1.00
C9     C     0.35910   0.48760   0.44150   0.01267  Uiso   1.00
C10    C     0.42470   0.53270   0.41420   0.01267  Uiso   1.00
C11    C     0.37450   0.62470   0.47210   0.01267  Uiso   1.00
C12    C     0.30740   0.58350   0.50050   0.01267  Uiso   1.00
C13    C     0.15130   0.24680   0.61490   0.01267  Uiso   1.00
C14    C     0.08310   0.20010   0.57510   0.01267  Uiso   1.00
C15    C     0.04330   0.14460   0.60590   0.01267  Uiso   1.00
C16    C     0.07770   0.13710   0.67670   0.01267  Uiso   1.00
C17    C     0.14920   0.18480   0.71300   0.01267  Uiso   1.00
C18    C     0.96740   0.09360   0.56690   0.01267  Uiso   1.00
C19    C     0.83210   0.04170   0.41240   0.01267  Uiso   1.00
C20    C     0.75310   0.99180   0.37530   0.01267  Uiso   1.00
C21    C     0.71800   0.99280   0.30450   0.01267  Uiso   1.00
C22    C     0.64690   0.94540   0.27190   0.01267  Uiso   1.00
C23    C     0.64090   0.89030   0.37390   0.01267  Uiso   1.00
C24    C     0.71140   0.93810   0.41150   0.01267  Uiso   1.00
C25    C     0.17610   0.43350   0.78880   0.01267  Uiso   1.00
C26    C     0.10540   0.47080   0.82150   0.01267  Uiso   1.00
C27    C     0.04410   0.43650   0.86070   0.01267  Uiso   1.00
C28    C     0.05920   0.36590   0.86860   0.01267  Uiso   1.00
C29    C     0.13150   0.33190   0.83580   0.01267  Uiso   1.00
C30    C     0.96650   0.47440   0.89190   0.01267  Uiso   1.00
C31    C     0.77650   0.46800   0.98510   0.01267  Uiso   1.00
C32    C     0.70100   0.51310   0.01410   0.01267  Uiso   1.00
C33    C     0.64090   0.48760   0.05850   0.01267  Uiso   1.00
C34    C     0.57530   0.53270   0.08580   0.01267  Uiso   1.00
C35    C     0.62550   0.62470   0.02790   0.01267  Uiso   1.00
C36    C     0.69260   0.58350   0.99950   0.01267  Uiso   1.00
C37    C     0.84870   0.24680   0.88510   0.01267  Uiso   1.00
C38    C     0.91690   0.20010   0.92490   0.01267  Uiso   1.00
C39    C     0.95670   0.14460   0.89410   0.01267  Uiso   1.00
C40    C     0.92230   0.13710   0.82330   0.01267  Uiso   1.00
C41    C     0.85080   0.18480   0.78700   0.01267  Uiso   1.00
C42    C     0.03260   0.09360   0.93310   0.01267  Uiso   1.00
C43    C     0.16790   0.04170   0.08760   0.01267  Uiso   1.00
C44    C     0.24690   0.99180   0.12470   0.01267  Uiso   1.00
C45    C     0.28200   0.99280   0.19550   0.01267  Uiso   1.00
C46    C     0.35310   0.94540   0.22810   0.01267  Uiso   1.00
C47    C     0.35910   0.89030   0.12610   0.01267  Uiso   1.00
C48    C     0.28860   0.93810   0.08850   0.01267  Uiso   1.00
C49    C     0.17610   0.56650   0.28880   0.01267  Uiso   1.00
C50    C     0.10540   0.52920   0.32150   0.01267  Uiso   1.00
C51    C     0.04410   0.56350   0.36070   0.01267  Uiso   1.00
C52    C     0.05920   0.63410   0.36860   0.01267  Uiso   1.00
C53    C     0.13150   0.66810   0.33580   0.01267  Uiso   1.00
C54    C     0.96650   0.52560   0.39190   0.01267  Uiso   1.00
C55    C     0.77650   0.53200   0.48510   0.01267  Uiso   1.00
C56    C     0.70100   0.48690   0.51410   0.01267  Uiso   1.00
C57    C     0.64090   0.51240   0.55850   0.01267  Uiso   1.00
C58    C     0.57530   0.46730   0.58580   0.01267  Uiso   1.00
C59    C     0.62550   0.37530   0.52790   0.01267  Uiso   1.00
C60    C     0.69260   0.41650   0.49950   0.01267  Uiso   1.00
C61    C     0.84870   0.75320   0.38510   0.01267  Uiso   1.00
C62    C     0.91690   0.79990   0.42490   0.01267  Uiso   1.00
C63    C     0.95670   0.85540   0.39410   0.01267  Uiso   1.00
C64    C     0.92230   0.86290   0.32330   0.01267  Uiso   1.00
C65    C     0.85080   0.81520   0.28700   0.01267  Uiso   1.00
C66    C     0.03260   0.90640   0.43310   0.01267  Uiso   1.00
C67    C     0.16790   0.95830   0.58760   0.01267  Uiso   1.00
C68    C     0.24690   0.00820   0.62470   0.01267  Uiso   1.00
C69    C     0.28200   0.00720   0.69550   0.01267  Uiso   1.00
C70    C     0.35310   0.05460   0.72810   0.01267  Uiso   1.00
C71    C     0.35910   0.10970   0.62610   0.01267  Uiso   1.00
C72    C     0.28860   0.06190   0.58850   0.01267  Uiso   1.00
C73    C     0.82390   0.56650   0.21120   0.01267  Uiso   1.00
C74    C     0.89460   0.52920   0.17850   0.01267  Uiso   1.00
C75    C     0.95590   0.56350   0.13930   0.01267  Uiso   1.00
C76    C     0.94080   0.63410   0.13140   0.01267  Uiso   1.00
C77    C     0.86850   0.66810   0.16420   0.01267  Uiso   1.00
C78    C     0.03350   0.52560   0.10810   0.01267  Uiso   1.00
C79    C     0.22350   0.53200   0.01490   0.01267  Uiso   1.00
C80    C     0.29900   0.48690   0.98590   0.01267  Uiso   1.00
C81    C     0.35910   0.51240   0.94150   0.01267  Uiso   1.00
C82    C     0.42470   0.46730   0.91420   0.01267  Uiso   1.00
C83    C     0.37450   0.37530   0.97210   0.01267  Uiso   1.00
C84    C     0.30740   0.41650   0.00050   0.01267  Uiso   1.00
C85    C     0.15130   0.75320   0.11490   0.01267  Uiso   1.00
C86    C     0.08310   0.79990   0.07510   0.01267  Uiso   1.00
C87    C     0.04330   0.85540   0.10590   0.01267  Uiso   1.00
C88    C     0.07770   0.86290   0.17670   0.01267  Uiso   1.00
C89    C     0.14920   0.81520   0.21300   0.01267  Uiso   1.00
C90    C     0.96740   0.90640   0.06690   0.01267  Uiso   1.00
C91    C     0.83210   0.95830   0.91240   0.01267  Uiso   1.00
C92    C     0.75310   0.00820   0.87530   0.01267  Uiso   1.00
C93    C     0.71800   0.00720   0.80450   0.01267  Uiso   1.00
C94    C     0.64690   0.05460   0.77190   0.01267  Uiso   1.00
C95    C     0.64090   0.10970   0.87390   0.01267  Uiso   1.00
C96    C     0.71140   0.06190   0.91150   0.01267  Uiso   1.00
S1     S     0.62421   0.61365   0.31740   0.01267  Uiso   1.00
S2     S     0.42055   0.74926   0.31865   0.01267  Uiso   1.00
S3     S     0.37579   0.61365   0.18260   0.01267  Uiso   1.00
S4     S     0.57945   0.74926   0.18135   0.01267  Uiso   1.00
S5     S     0.37579   0.38635   0.68260   0.01267  Uiso   1.00
S6     S     0.57945   0.25074   0.68135   0.01267  Uiso   1.00
S7     S     0.62421   0.38635   0.81740   0.01267  Uiso   1.00
S8     S     0.42055   0.25074   0.81865   0.01267  Uiso   1.00
I1     I     0.64049   0.72753   0.50499   0.01267  Uiso   1.00
I2     I     0.35951   0.72753   0.99501   0.01267  Uiso   1.00
I3     I     0.35951   0.27247   0.49501   0.01267  Uiso   1.00
I4     I     0.64049   0.27247   0.00499   0.01267  Uiso   1.00
N1     N     0.81110   0.36560   0.70430   0.01267  Uiso   1.00
N2     N     0.09570   0.44510   0.57480   0.01267  Uiso   1.00
N3     N     0.16190   0.49530   0.54990   0.01267  Uiso   1.00
N4     N     0.43320   0.59990   0.42810   0.01267  Uiso   1.00
N5     N     0.18440   0.24010   0.68360   0.01267  Uiso   1.00
N6     N     0.93640   0.09670   0.50210   0.01267  Uiso   1.00
N7     N     0.86090   0.04160   0.47710   0.01267  Uiso   1.00
N8     N     0.60650   0.89330   0.30620   0.01267  Uiso   1.00
N9     N     0.18890   0.36560   0.79570   0.01267  Uiso   1.00
N10    N     0.90430   0.44510   0.92520   0.01267  Uiso   1.00
N11    N     0.83810   0.49530   0.95010   0.01267  Uiso   1.00
N12    N     0.56680   0.59990   0.07190   0.01267  Uiso   1.00
N13    N     0.81560   0.24010   0.81640   0.01267  Uiso   1.00
N14    N     0.06360   0.09670   0.99790   0.01267  Uiso   1.00
N15    N     0.13910   0.04160   0.02290   0.01267  Uiso   1.00
N16    N     0.39350   0.89330   0.19380   0.01267  Uiso   1.00
N17    N     0.18890   0.63440   0.29570   0.01267  Uiso   1.00
N18    N     0.90430   0.55490   0.42520   0.01267  Uiso   1.00
N19    N     0.83810   0.50470   0.45010   0.01267  Uiso   1.00
N20    N     0.56680   0.40010   0.57190   0.01267  Uiso   1.00
N21    N     0.81560   0.75990   0.31640   0.01267  Uiso   1.00
N22    N     0.06360   0.90330   0.49790   0.01267  Uiso   1.00
N23    N     0.13910   0.95840   0.52290   0.01267  Uiso   1.00
N24    N     0.39350   0.10670   0.69380   0.01267  Uiso   1.00
N25    N     0.81110   0.63440   0.20430   0.01267  Uiso   1.00
N26    N     0.09570   0.55490   0.07480   0.01267  Uiso   1.00
N27    N     0.16190   0.50470   0.04990   0.01267  Uiso   1.00
N28    N     0.43320   0.40010   0.92810   0.01267  Uiso   1.00
N29    N     0.18440   0.75990   0.18360   0.01267  Uiso   1.00
N30    N     0.93640   0.90330   0.00210   0.01267  Uiso   1.00
N31    N     0.86090   0.95840   0.97710   0.01267  Uiso   1.00
N32    N     0.60650   0.10670   0.80620   0.01267  Uiso   1.00
I5     I     0.00000   0.94973   0.75000   0.01267  Uiso   1.00
I6     I     0.00000   0.05027   0.25000   0.01267  Uiso   1.00
