data_SATCEX_clean
_audit_creation_date              2014-07-02
_audit_creation_method            'Materials Studio'
_symmetry_space_group_name_H-M    'P1'
_symmetry_Int_Tables_number       1
_symmetry_cell_setting            triclinic
loop_
_symmetry_equiv_pos_as_xyz
  x,y,z
_cell_length_a                    13.8294
_cell_length_b                    20.4032
_cell_length_c                    20.4032
_cell_angle_alpha                 75.9719
_cell_angle_beta                  90.0000
_cell_angle_gamma                 90.0000
loop_
_atom_site_label
_atom_site_type_symbol
_atom_site_fract_x
_atom_site_fract_y
_atom_site_fract_z
_atom_site_U_iso_or_equiv
_atom_site_adp_type
_atom_site_occupancy
Cu1    Cu    0.82926   0.22488   0.88664   0.01267  Uiso   1.00
Cu2    Cu    0.81792   0.11702   0.75650   0.01267  Uiso   1.00
Cu3    Cu    0.82926   0.27512   0.61336   0.01267  Uiso   1.00
Cu4    Cu    0.81792   0.38298   0.74350   0.01267  Uiso   1.00
Cu5    Cu    0.67074   0.88664   0.22488   0.01267  Uiso   1.00
Cu6    Cu    0.68208   0.75650   0.11702   0.01267  Uiso   1.00
Cu7    Cu    0.67074   0.61336   0.27512   0.01267  Uiso   1.00
Cu8    Cu    0.68208   0.74350   0.38298   0.01267  Uiso   1.00
Cu9    Cu    0.17074   0.77512   0.11336   0.01267  Uiso   1.00
Cu10   Cu    0.18208   0.88298   0.24350   0.01267  Uiso   1.00
Cu11   Cu    0.17074   0.72488   0.38664   0.01267  Uiso   1.00
Cu12   Cu    0.18208   0.61702   0.25650   0.01267  Uiso   1.00
Cu13   Cu    0.32926   0.11336   0.77512   0.01267  Uiso   1.00
Cu14   Cu    0.31792   0.24350   0.88298   0.01267  Uiso   1.00
Cu15   Cu    0.32926   0.38664   0.72488   0.01267  Uiso   1.00
Cu16   Cu    0.31792   0.25650   0.61702   0.01267  Uiso   1.00
H1     H     0.82260   0.27370   0.01330   0.01267  Uiso   1.00
H2     H     0.73200   0.33430   0.06970   0.01267  Uiso   1.00
H3     H     0.52720   0.34970   0.92730   0.01267  Uiso   1.00
H4     H     0.62460   0.28480   0.87620   0.01267  Uiso   1.00
H5     H     0.48990   0.51360   0.20340   0.01267  Uiso   1.00
H6     H     0.38860   0.57050   0.25970   0.01267  Uiso   1.00
H7     H     0.17370   0.55360   0.14160   0.01267  Uiso   1.00
H8     H     0.26640   0.48870   0.08770   0.01267  Uiso   1.00
H9     H     0.91030   0.97480   0.76640   0.01267  Uiso   1.00
H10    H     0.04750   0.92170   0.81210   0.01267  Uiso   1.00
H11    H     0.07740   0.05790   0.91950   0.01267  Uiso   1.00
H12    H     0.94040   0.10900   0.87000   0.01267  Uiso   1.00
H13    H     0.82260   0.22630   0.48670   0.01267  Uiso   1.00
H14    H     0.73200   0.16570   0.43030   0.01267  Uiso   1.00
H15    H     0.52720   0.15030   0.57270   0.01267  Uiso   1.00
H16    H     0.62460   0.21520   0.62380   0.01267  Uiso   1.00
H17    H     0.48990   0.98640   0.29660   0.01267  Uiso   1.00
H18    H     0.38860   0.92950   0.24030   0.01267  Uiso   1.00
H19    H     0.17370   0.94640   0.35840   0.01267  Uiso   1.00
H20    H     0.26640   0.01130   0.41230   0.01267  Uiso   1.00
H21    H     0.91030   0.52520   0.73360   0.01267  Uiso   1.00
H22    H     0.04750   0.57830   0.68790   0.01267  Uiso   1.00
H23    H     0.07740   0.44210   0.58050   0.01267  Uiso   1.00
H24    H     0.94040   0.39100   0.63000   0.01267  Uiso   1.00
H25    H     0.67740   0.01330   0.27370   0.01267  Uiso   1.00
H26    H     0.76800   0.06970   0.33430   0.01267  Uiso   1.00
H27    H     0.97280   0.92730   0.34970   0.01267  Uiso   1.00
H28    H     0.87540   0.87620   0.28480   0.01267  Uiso   1.00
H29    H     0.01010   0.20340   0.51360   0.01267  Uiso   1.00
H30    H     0.11140   0.25970   0.57050   0.01267  Uiso   1.00
H31    H     0.32630   0.14160   0.55360   0.01267  Uiso   1.00
H32    H     0.23360   0.08770   0.48870   0.01267  Uiso   1.00
H33    H     0.58970   0.76640   0.97480   0.01267  Uiso   1.00
H34    H     0.45250   0.81210   0.92170   0.01267  Uiso   1.00
H35    H     0.42260   0.91950   0.05790   0.01267  Uiso   1.00
H36    H     0.55960   0.87000   0.10900   0.01267  Uiso   1.00
H37    H     0.67740   0.48670   0.22630   0.01267  Uiso   1.00
H38    H     0.76800   0.43030   0.16570   0.01267  Uiso   1.00
H39    H     0.97280   0.57270   0.15030   0.01267  Uiso   1.00
H40    H     0.87540   0.62380   0.21520   0.01267  Uiso   1.00
H41    H     0.01010   0.29660   0.98640   0.01267  Uiso   1.00
H42    H     0.11140   0.24030   0.92950   0.01267  Uiso   1.00
H43    H     0.32630   0.35840   0.94640   0.01267  Uiso   1.00
H44    H     0.23360   0.41230   0.01130   0.01267  Uiso   1.00
H45    H     0.58970   0.73360   0.52520   0.01267  Uiso   1.00
H46    H     0.45250   0.68790   0.57830   0.01267  Uiso   1.00
H47    H     0.42260   0.58050   0.44210   0.01267  Uiso   1.00
H48    H     0.55960   0.63000   0.39100   0.01267  Uiso   1.00
H49    H     0.17740   0.72630   0.98670   0.01267  Uiso   1.00
H50    H     0.26800   0.66570   0.93030   0.01267  Uiso   1.00
H51    H     0.47280   0.65030   0.07270   0.01267  Uiso   1.00
H52    H     0.37540   0.71520   0.12380   0.01267  Uiso   1.00
H53    H     0.51010   0.48640   0.79660   0.01267  Uiso   1.00
H54    H     0.61140   0.42950   0.74030   0.01267  Uiso   1.00
H55    H     0.82630   0.44640   0.85840   0.01267  Uiso   1.00
H56    H     0.73360   0.51130   0.91230   0.01267  Uiso   1.00
H57    H     0.08970   0.02520   0.23360   0.01267  Uiso   1.00
H58    H     0.95250   0.07830   0.18790   0.01267  Uiso   1.00
H59    H     0.92260   0.94210   0.08050   0.01267  Uiso   1.00
H60    H     0.05960   0.89100   0.13000   0.01267  Uiso   1.00
H61    H     0.17740   0.77370   0.51330   0.01267  Uiso   1.00
H62    H     0.26800   0.83430   0.56970   0.01267  Uiso   1.00
H63    H     0.47280   0.84970   0.42730   0.01267  Uiso   1.00
H64    H     0.37540   0.78480   0.37620   0.01267  Uiso   1.00
H65    H     0.51010   0.01360   0.70340   0.01267  Uiso   1.00
H66    H     0.61140   0.07050   0.75970   0.01267  Uiso   1.00
H67    H     0.82630   0.05360   0.64160   0.01267  Uiso   1.00
H68    H     0.73360   0.98870   0.58770   0.01267  Uiso   1.00
H69    H     0.08970   0.47480   0.26640   0.01267  Uiso   1.00
H70    H     0.95250   0.42170   0.31210   0.01267  Uiso   1.00
H71    H     0.92260   0.55790   0.41950   0.01267  Uiso   1.00
H72    H     0.05960   0.60900   0.37000   0.01267  Uiso   1.00
H73    H     0.32260   0.98670   0.72630   0.01267  Uiso   1.00
H74    H     0.23200   0.93030   0.66570   0.01267  Uiso   1.00
H75    H     0.02720   0.07270   0.65030   0.01267  Uiso   1.00
H76    H     0.12460   0.12380   0.71520   0.01267  Uiso   1.00
H77    H     0.98990   0.79660   0.48640   0.01267  Uiso   1.00
H78    H     0.88860   0.74030   0.42950   0.01267  Uiso   1.00
H79    H     0.67370   0.85840   0.44640   0.01267  Uiso   1.00
H80    H     0.76640   0.91230   0.51130   0.01267  Uiso   1.00
H81    H     0.41030   0.23360   0.02520   0.01267  Uiso   1.00
H82    H     0.54750   0.18790   0.07830   0.01267  Uiso   1.00
H83    H     0.57740   0.08050   0.94210   0.01267  Uiso   1.00
H84    H     0.44040   0.13000   0.89100   0.01267  Uiso   1.00
H85    H     0.32260   0.51330   0.77370   0.01267  Uiso   1.00
H86    H     0.23200   0.56970   0.83430   0.01267  Uiso   1.00
H87    H     0.02720   0.42730   0.84970   0.01267  Uiso   1.00
H88    H     0.12460   0.37620   0.78480   0.01267  Uiso   1.00
H89    H     0.98990   0.70340   0.01360   0.01267  Uiso   1.00
H90    H     0.88860   0.75970   0.07050   0.01267  Uiso   1.00
H91    H     0.67370   0.64160   0.05360   0.01267  Uiso   1.00
H92    H     0.76640   0.58770   0.98870   0.01267  Uiso   1.00
H93    H     0.41030   0.26640   0.47480   0.01267  Uiso   1.00
H94    H     0.54750   0.31210   0.42170   0.01267  Uiso   1.00
H95    H     0.57740   0.41950   0.55790   0.01267  Uiso   1.00
H96    H     0.44040   0.37000   0.60900   0.01267  Uiso   1.00
W1     W     0.82547   0.25000   0.75000   0.01267  Uiso   1.00
W2     W     0.67453   0.75000   0.25000   0.01267  Uiso   1.00
W3     W     0.17453   0.75000   0.25000   0.01267  Uiso   1.00
W4     W     0.32547   0.25000   0.75000   0.01267  Uiso   1.00
C1     C     0.76250   0.28920   0.99580   0.01267  Uiso   1.00
C2     C     0.70950   0.32540   0.02980   0.01267  Uiso   1.00
C3     C     0.61900   0.34940   0.00300   0.01267  Uiso   1.00
C4     C     0.58700   0.33460   0.94560   0.01267  Uiso   1.00
C5     C     0.64690   0.29600   0.91520   0.01267  Uiso   1.00
C6     C     0.55810   0.39060   0.03820   0.01267  Uiso   1.00
C7     C     0.45140   0.45810   0.10150   0.01267  Uiso   1.00
C8     C     0.38950   0.49380   0.13820   0.01267  Uiso   1.00
C9     C     0.42530   0.51980   0.19080   0.01267  Uiso   1.00
C10    C     0.36440   0.55480   0.22380   0.01267  Uiso   1.00
C11    C     0.23740   0.54420   0.15540   0.01267  Uiso   1.00
C12    C     0.29380   0.50600   0.12160   0.01267  Uiso   1.00
C13    C     0.94490   0.99240   0.79740   0.01267  Uiso   1.00
C14    C     0.02660   0.96000   0.82500   0.01267  Uiso   1.00
C15    C     0.07840   0.98350   0.87170   0.01267  Uiso   1.00
C16    C     0.04470   0.03990   0.88810   0.01267  Uiso   1.00
C17    C     0.96240   0.07040   0.85800   0.01267  Uiso   1.00
C18    C     0.17160   0.95260   0.90120   0.01267  Uiso   1.00
C19    C     0.76250   0.21080   0.50420   0.01267  Uiso   1.00
C20    C     0.70950   0.17460   0.47020   0.01267  Uiso   1.00
C21    C     0.61900   0.15060   0.49700   0.01267  Uiso   1.00
C22    C     0.58700   0.16540   0.55440   0.01267  Uiso   1.00
C23    C     0.64690   0.20400   0.58480   0.01267  Uiso   1.00
C24    C     0.55810   0.10940   0.46180   0.01267  Uiso   1.00
C25    C     0.45140   0.04190   0.39850   0.01267  Uiso   1.00
C26    C     0.38950   0.00620   0.36180   0.01267  Uiso   1.00
C27    C     0.42530   0.98020   0.30920   0.01267  Uiso   1.00
C28    C     0.36440   0.94520   0.27620   0.01267  Uiso   1.00
C29    C     0.23740   0.95580   0.34460   0.01267  Uiso   1.00
C30    C     0.29380   0.99400   0.37840   0.01267  Uiso   1.00
C31    C     0.94490   0.50760   0.70260   0.01267  Uiso   1.00
C32    C     0.02660   0.54000   0.67500   0.01267  Uiso   1.00
C33    C     0.07840   0.51650   0.62830   0.01267  Uiso   1.00
C34    C     0.04470   0.46010   0.61190   0.01267  Uiso   1.00
C35    C     0.96240   0.42960   0.64200   0.01267  Uiso   1.00
C36    C     0.17160   0.54740   0.59880   0.01267  Uiso   1.00
C37    C     0.73750   0.99580   0.28920   0.01267  Uiso   1.00
C38    C     0.79050   0.02980   0.32540   0.01267  Uiso   1.00
C39    C     0.88100   0.00300   0.34940   0.01267  Uiso   1.00
C40    C     0.91300   0.94560   0.33460   0.01267  Uiso   1.00
C41    C     0.85310   0.91520   0.29600   0.01267  Uiso   1.00
C42    C     0.94190   0.03820   0.39060   0.01267  Uiso   1.00
C43    C     0.04860   0.10150   0.45810   0.01267  Uiso   1.00
C44    C     0.11050   0.13820   0.49380   0.01267  Uiso   1.00
C45    C     0.07470   0.19080   0.51980   0.01267  Uiso   1.00
C46    C     0.13560   0.22380   0.55480   0.01267  Uiso   1.00
C47    C     0.26260   0.15540   0.54420   0.01267  Uiso   1.00
C48    C     0.20620   0.12160   0.50600   0.01267  Uiso   1.00
C49    C     0.55510   0.79740   0.99240   0.01267  Uiso   1.00
C50    C     0.47340   0.82500   0.96000   0.01267  Uiso   1.00
C51    C     0.42160   0.87170   0.98350   0.01267  Uiso   1.00
C52    C     0.45530   0.88810   0.03990   0.01267  Uiso   1.00
C53    C     0.53760   0.85800   0.07040   0.01267  Uiso   1.00
C54    C     0.32840   0.90120   0.95260   0.01267  Uiso   1.00
C55    C     0.73750   0.50420   0.21080   0.01267  Uiso   1.00
C56    C     0.79050   0.47020   0.17460   0.01267  Uiso   1.00
C57    C     0.88100   0.49700   0.15060   0.01267  Uiso   1.00
C58    C     0.91300   0.55440   0.16540   0.01267  Uiso   1.00
C59    C     0.85310   0.58480   0.20400   0.01267  Uiso   1.00
C60    C     0.94190   0.46180   0.10940   0.01267  Uiso   1.00
C61    C     0.04860   0.39850   0.04190   0.01267  Uiso   1.00
C62    C     0.11050   0.36180   0.00620   0.01267  Uiso   1.00
C63    C     0.07470   0.30920   0.98020   0.01267  Uiso   1.00
C64    C     0.13560   0.27620   0.94520   0.01267  Uiso   1.00
C65    C     0.26260   0.34460   0.95580   0.01267  Uiso   1.00
C66    C     0.20620   0.37840   0.99400   0.01267  Uiso   1.00
C67    C     0.55510   0.70260   0.50760   0.01267  Uiso   1.00
C68    C     0.47340   0.67500   0.54000   0.01267  Uiso   1.00
C69    C     0.42160   0.62830   0.51650   0.01267  Uiso   1.00
C70    C     0.45530   0.61190   0.46010   0.01267  Uiso   1.00
C71    C     0.53760   0.64200   0.42960   0.01267  Uiso   1.00
C72    C     0.32840   0.59880   0.54740   0.01267  Uiso   1.00
C73    C     0.23750   0.71080   0.00420   0.01267  Uiso   1.00
C74    C     0.29050   0.67460   0.97020   0.01267  Uiso   1.00
C75    C     0.38100   0.65060   0.99700   0.01267  Uiso   1.00
C76    C     0.41300   0.66540   0.05440   0.01267  Uiso   1.00
C77    C     0.35310   0.70400   0.08480   0.01267  Uiso   1.00
C78    C     0.44190   0.60940   0.96180   0.01267  Uiso   1.00
C79    C     0.54860   0.54190   0.89850   0.01267  Uiso   1.00
C80    C     0.61050   0.50620   0.86180   0.01267  Uiso   1.00
C81    C     0.57470   0.48020   0.80920   0.01267  Uiso   1.00
C82    C     0.63560   0.44520   0.77620   0.01267  Uiso   1.00
C83    C     0.76260   0.45580   0.84460   0.01267  Uiso   1.00
C84    C     0.70620   0.49400   0.87840   0.01267  Uiso   1.00
C85    C     0.05510   0.00760   0.20260   0.01267  Uiso   1.00
C86    C     0.97340   0.04000   0.17500   0.01267  Uiso   1.00
C87    C     0.92160   0.01650   0.12830   0.01267  Uiso   1.00
C88    C     0.95530   0.96010   0.11190   0.01267  Uiso   1.00
C89    C     0.03760   0.92960   0.14200   0.01267  Uiso   1.00
C90    C     0.82840   0.04740   0.09880   0.01267  Uiso   1.00
C91    C     0.23750   0.78920   0.49580   0.01267  Uiso   1.00
C92    C     0.29050   0.82540   0.52980   0.01267  Uiso   1.00
C93    C     0.38100   0.84940   0.50300   0.01267  Uiso   1.00
C94    C     0.41300   0.83460   0.44560   0.01267  Uiso   1.00
C95    C     0.35310   0.79600   0.41520   0.01267  Uiso   1.00
C96    C     0.44190   0.89060   0.53820   0.01267  Uiso   1.00
C97    C     0.54860   0.95810   0.60150   0.01267  Uiso   1.00
C98    C     0.61050   0.99380   0.63820   0.01267  Uiso   1.00
C99    C     0.57470   0.01980   0.69080   0.01267  Uiso   1.00
C100   C     0.63560   0.05480   0.72380   0.01267  Uiso   1.00
C101   C     0.76260   0.04420   0.65540   0.01267  Uiso   1.00
C102   C     0.70620   0.00600   0.62160   0.01267  Uiso   1.00
C103   C     0.05510   0.49240   0.29740   0.01267  Uiso   1.00
C104   C     0.97340   0.46000   0.32500   0.01267  Uiso   1.00
C105   C     0.92160   0.48350   0.37170   0.01267  Uiso   1.00
C106   C     0.95530   0.53990   0.38810   0.01267  Uiso   1.00
C107   C     0.03760   0.57040   0.35800   0.01267  Uiso   1.00
C108   C     0.82840   0.45260   0.40120   0.01267  Uiso   1.00
C109   C     0.26250   0.00420   0.71080   0.01267  Uiso   1.00
C110   C     0.20950   0.97020   0.67460   0.01267  Uiso   1.00
C111   C     0.11900   0.99700   0.65060   0.01267  Uiso   1.00
C112   C     0.08700   0.05440   0.66540   0.01267  Uiso   1.00
C113   C     0.14690   0.08480   0.70400   0.01267  Uiso   1.00
C114   C     0.05810   0.96180   0.60940   0.01267  Uiso   1.00
C115   C     0.95140   0.89850   0.54190   0.01267  Uiso   1.00
C116   C     0.88950   0.86180   0.50620   0.01267  Uiso   1.00
C117   C     0.92530   0.80920   0.48020   0.01267  Uiso   1.00
C118   C     0.86440   0.77620   0.44520   0.01267  Uiso   1.00
C119   C     0.73740   0.84460   0.45580   0.01267  Uiso   1.00
C120   C     0.79380   0.87840   0.49400   0.01267  Uiso   1.00
C121   C     0.44490   0.20260   0.00760   0.01267  Uiso   1.00
C122   C     0.52660   0.17500   0.04000   0.01267  Uiso   1.00
C123   C     0.57840   0.12830   0.01650   0.01267  Uiso   1.00
C124   C     0.54470   0.11190   0.96010   0.01267  Uiso   1.00
C125   C     0.46240   0.14200   0.92960   0.01267  Uiso   1.00
C126   C     0.67160   0.09880   0.04740   0.01267  Uiso   1.00
C127   C     0.26250   0.49580   0.78920   0.01267  Uiso   1.00
C128   C     0.20950   0.52980   0.82540   0.01267  Uiso   1.00
C129   C     0.11900   0.50300   0.84940   0.01267  Uiso   1.00
C130   C     0.08700   0.44560   0.83460   0.01267  Uiso   1.00
C131   C     0.14690   0.41520   0.79600   0.01267  Uiso   1.00
C132   C     0.05810   0.53820   0.89060   0.01267  Uiso   1.00
C133   C     0.95140   0.60150   0.95810   0.01267  Uiso   1.00
C134   C     0.88950   0.63820   0.99380   0.01267  Uiso   1.00
C135   C     0.92530   0.69080   0.01980   0.01267  Uiso   1.00
C136   C     0.86440   0.72380   0.05480   0.01267  Uiso   1.00
C137   C     0.73740   0.65540   0.04420   0.01267  Uiso   1.00
C138   C     0.79380   0.62160   0.00600   0.01267  Uiso   1.00
C139   C     0.44490   0.29740   0.49240   0.01267  Uiso   1.00
C140   C     0.52660   0.32500   0.46000   0.01267  Uiso   1.00
C141   C     0.57840   0.37170   0.48350   0.01267  Uiso   1.00
C142   C     0.54470   0.38810   0.53990   0.01267  Uiso   1.00
C143   C     0.46240   0.35800   0.57040   0.01267  Uiso   1.00
C144   C     0.67160   0.40120   0.45260   0.01267  Uiso   1.00
S1     S     0.73293   0.17466   0.82036   0.01267  Uiso   1.00
S2     S     0.91790   0.30336   0.81008   0.01267  Uiso   1.00
S3     S     0.73293   0.32534   0.67964   0.01267  Uiso   1.00
S4     S     0.91790   0.19664   0.68992   0.01267  Uiso   1.00
S5     S     0.76707   0.82036   0.17466   0.01267  Uiso   1.00
S6     S     0.58210   0.81008   0.30336   0.01267  Uiso   1.00
S7     S     0.76707   0.67964   0.32534   0.01267  Uiso   1.00
S8     S     0.58210   0.68992   0.19664   0.01267  Uiso   1.00
S9     S     0.26707   0.82534   0.17964   0.01267  Uiso   1.00
S10    S     0.08210   0.69664   0.18992   0.01267  Uiso   1.00
S11    S     0.26707   0.67466   0.32036   0.01267  Uiso   1.00
S12    S     0.08210   0.80336   0.31008   0.01267  Uiso   1.00
S13    S     0.23293   0.17964   0.82534   0.01267  Uiso   1.00
S14    S     0.41790   0.18992   0.69664   0.01267  Uiso   1.00
S15    S     0.23293   0.32036   0.67466   0.01267  Uiso   1.00
S16    S     0.41790   0.31008   0.80336   0.01267  Uiso   1.00
N1     N     0.73430   0.27375   0.93815   0.01267  Uiso   1.00
N2     N     0.59630   0.40830   0.09230   0.01267  Uiso   1.00
N3     N     0.54100   0.44500   0.12380   0.01267  Uiso   1.00
N4     N     0.46990   0.40670   0.01450   0.01267  Uiso   1.00
N5     N     0.41560   0.44330   0.04770   0.01267  Uiso   1.00
N6     N     0.27060   0.56731   0.20571   0.01267  Uiso   1.00
N7     N     0.91270   0.04740   0.81280   0.01267  Uiso   1.00
N8     N     0.20920   0.97620   0.95000   0.01267  Uiso   1.00
N9     N     0.20820   0.90370   0.87730   0.01267  Uiso   1.00
N10    N     0.73430   0.22625   0.56185   0.01267  Uiso   1.00
N11    N     0.59630   0.09170   0.40770   0.01267  Uiso   1.00
N12    N     0.54100   0.05500   0.37620   0.01267  Uiso   1.00
N13    N     0.46990   0.09330   0.48550   0.01267  Uiso   1.00
N14    N     0.41560   0.05670   0.45230   0.01267  Uiso   1.00
N15    N     0.27060   0.93269   0.29429   0.01267  Uiso   1.00
N16    N     0.91270   0.45260   0.68720   0.01267  Uiso   1.00
N17    N     0.20920   0.52380   0.55000   0.01267  Uiso   1.00
N18    N     0.20820   0.59630   0.62270   0.01267  Uiso   1.00
N19    N     0.76570   0.93815   0.27375   0.01267  Uiso   1.00
N20    N     0.90370   0.09230   0.40830   0.01267  Uiso   1.00
N21    N     0.95900   0.12380   0.44500   0.01267  Uiso   1.00
N22    N     0.03010   0.01450   0.40670   0.01267  Uiso   1.00
N23    N     0.08440   0.04770   0.44330   0.01267  Uiso   1.00
N24    N     0.22940   0.20571   0.56731   0.01267  Uiso   1.00
N25    N     0.58730   0.81280   0.04740   0.01267  Uiso   1.00
N26    N     0.29080   0.95000   0.97620   0.01267  Uiso   1.00
N27    N     0.29180   0.87730   0.90370   0.01267  Uiso   1.00
N28    N     0.76570   0.56185   0.22625   0.01267  Uiso   1.00
N29    N     0.90370   0.40770   0.09170   0.01267  Uiso   1.00
N30    N     0.95900   0.37620   0.05500   0.01267  Uiso   1.00
N31    N     0.03010   0.48550   0.09330   0.01267  Uiso   1.00
N32    N     0.08440   0.45230   0.05670   0.01267  Uiso   1.00
N33    N     0.22940   0.29429   0.93269   0.01267  Uiso   1.00
N34    N     0.58730   0.68720   0.45260   0.01267  Uiso   1.00
N35    N     0.29080   0.55000   0.52380   0.01267  Uiso   1.00
N36    N     0.29180   0.62270   0.59630   0.01267  Uiso   1.00
N37    N     0.26570   0.72625   0.06185   0.01267  Uiso   1.00
N38    N     0.40370   0.59170   0.90770   0.01267  Uiso   1.00
N39    N     0.45900   0.55500   0.87620   0.01267  Uiso   1.00
N40    N     0.53010   0.59330   0.98550   0.01267  Uiso   1.00
N41    N     0.58440   0.55670   0.95230   0.01267  Uiso   1.00
N42    N     0.72940   0.43269   0.79429   0.01267  Uiso   1.00
N43    N     0.08730   0.95260   0.18720   0.01267  Uiso   1.00
N44    N     0.79080   0.02380   0.05000   0.01267  Uiso   1.00
N45    N     0.79180   0.09630   0.12270   0.01267  Uiso   1.00
N46    N     0.26570   0.77375   0.43815   0.01267  Uiso   1.00
N47    N     0.40370   0.90830   0.59230   0.01267  Uiso   1.00
N48    N     0.45900   0.94500   0.62380   0.01267  Uiso   1.00
N49    N     0.53010   0.90670   0.51450   0.01267  Uiso   1.00
N50    N     0.58440   0.94330   0.54770   0.01267  Uiso   1.00
N51    N     0.72940   0.06731   0.70571   0.01267  Uiso   1.00
N52    N     0.08730   0.54740   0.31280   0.01267  Uiso   1.00
N53    N     0.79080   0.47620   0.45000   0.01267  Uiso   1.00
N54    N     0.79180   0.40370   0.37730   0.01267  Uiso   1.00
N55    N     0.23430   0.06185   0.72625   0.01267  Uiso   1.00
N56    N     0.09630   0.90770   0.59170   0.01267  Uiso   1.00
N57    N     0.04100   0.87620   0.55500   0.01267  Uiso   1.00
N58    N     0.96990   0.98550   0.59330   0.01267  Uiso   1.00
N59    N     0.91560   0.95230   0.55670   0.01267  Uiso   1.00
N60    N     0.77060   0.79429   0.43269   0.01267  Uiso   1.00
N61    N     0.41270   0.18720   0.95260   0.01267  Uiso   1.00
N62    N     0.70920   0.05000   0.02380   0.01267  Uiso   1.00
N63    N     0.70820   0.12270   0.09630   0.01267  Uiso   1.00
N64    N     0.23430   0.43815   0.77375   0.01267  Uiso   1.00
N65    N     0.09630   0.59230   0.90830   0.01267  Uiso   1.00
N66    N     0.04100   0.62380   0.94500   0.01267  Uiso   1.00
N67    N     0.96990   0.51450   0.90670   0.01267  Uiso   1.00
N68    N     0.91560   0.54770   0.94330   0.01267  Uiso   1.00
N69    N     0.77060   0.70571   0.06731   0.01267  Uiso   1.00
N70    N     0.41270   0.31280   0.54740   0.01267  Uiso   1.00
N71    N     0.70920   0.45000   0.47620   0.01267  Uiso   1.00
N72    N     0.70820   0.37730   0.40370   0.01267  Uiso   1.00
Cl1    Cl    0.92324   0.16847   0.97405   0.01267  Uiso   1.00
Cl2    Cl    0.92324   0.33153   0.52595   0.01267  Uiso   1.00
Cl3    Cl    0.57676   0.97405   0.16847   0.01267  Uiso   1.00
Cl4    Cl    0.57676   0.52595   0.33153   0.01267  Uiso   1.00
Cl5    Cl    0.07676   0.83153   0.02595   0.01267  Uiso   1.00
Cl6    Cl    0.07676   0.66847   0.47405   0.01267  Uiso   1.00
Cl7    Cl    0.42324   0.02595   0.83153   0.01267  Uiso   1.00
Cl8    Cl    0.42324   0.47405   0.66847   0.01267  Uiso   1.00
