data_SERKEG_clean
_audit_creation_date              2014-07-02
_audit_creation_method            'Materials Studio'
_symmetry_space_group_name_H-M    'P1'
_symmetry_Int_Tables_number       1
_symmetry_cell_setting            triclinic
loop_
_symmetry_equiv_pos_as_xyz
  x,y,z
_cell_length_a                    7.4580
_cell_length_b                    16.2390
_cell_length_c                    16.2390
_cell_angle_alpha                 120.0000
_cell_angle_beta                  90.0000
_cell_angle_gamma                 90.0000
loop_
_atom_site_label
_atom_site_type_symbol
_atom_site_fract_x
_atom_site_fract_y
_atom_site_fract_z
_atom_site_U_iso_or_equiv
_atom_site_adp_type
_atom_site_occupancy
Y1     Y     0.12550   0.66667   0.33334   0.01267  Uiso   1.00
Y2     Y     0.62550   0.33333   0.66666   0.01267  Uiso   1.00
Y3     Y     0.62550   0.66667   0.33334   0.01267  Uiso   1.00
Y4     Y     0.12550   0.33333   0.66666   0.01267  Uiso   1.00
H1     H     0.62520   0.86000   0.56630   0.01267  Uiso   1.00
H2     H     0.62520   0.70630   0.14000   0.01267  Uiso   1.00
H3     H     0.62520   0.43370   0.29370   0.01267  Uiso   1.00
H4     H     0.12520   0.14000   0.43370   0.01267  Uiso   1.00
H5     H     0.12520   0.29370   0.86000   0.01267  Uiso   1.00
H6     H     0.12520   0.56630   0.70630   0.01267  Uiso   1.00
H7     H     0.12520   0.70630   0.56630   0.01267  Uiso   1.00
H8     H     0.12520   0.43370   0.14000   0.01267  Uiso   1.00
H9     H     0.12520   0.86000   0.29370   0.01267  Uiso   1.00
H10    H     0.62520   0.29370   0.43370   0.01267  Uiso   1.00
H11    H     0.62520   0.56630   0.86000   0.01267  Uiso   1.00
H12    H     0.62520   0.14000   0.70630   0.01267  Uiso   1.00
H13    H     0.05630   1.00000   0.55360   0.01267  Uiso   1.00
H14    H     0.05630   0.55360   0.00000   0.01267  Uiso   1.00
H15    H     0.05630   0.44640   0.44640   0.01267  Uiso   1.00
H16    H     0.55630   1.00000   0.44640   0.01267  Uiso   1.00
H17    H     0.55630   0.44640  -0.00000   0.01267  Uiso   1.00
H18    H     0.55630   0.55360   0.55360   0.01267  Uiso   1.00
C1     C     0.68580   0.91800   0.58420   0.01267  Uiso   1.00
C2     C     0.85560   0.91550   0.54860   0.01267  Uiso   1.00
C3     C     0.93860   0.82700   0.48530   0.01267  Uiso   1.00
C4     C     0.68580   0.66620   0.08200   0.01267  Uiso   1.00
C5     C     0.85560   0.63310   0.08450   0.01267  Uiso   1.00
C6     C     0.93860   0.65830   0.17300   0.01267  Uiso   1.00
C7     C     0.68580   0.41580   0.33380   0.01267  Uiso   1.00
C8     C     0.85560   0.45140   0.36690   0.01267  Uiso   1.00
C9     C     0.93860   0.51470   0.34170   0.01267  Uiso   1.00
C10    C     0.18580   0.08200   0.41580   0.01267  Uiso   1.00
C11    C     0.35560   0.08450   0.45140   0.01267  Uiso   1.00
C12    C     0.43860   0.17300   0.51470   0.01267  Uiso   1.00
C13    C     0.18580   0.33380   0.91800   0.01267  Uiso   1.00
C14    C     0.35560   0.36690   0.91550   0.01267  Uiso   1.00
C15    C     0.43860   0.34170   0.82700   0.01267  Uiso   1.00
C16    C     0.18580   0.58420   0.66620   0.01267  Uiso   1.00
C17    C     0.35560   0.54860   0.63310   0.01267  Uiso   1.00
C18    C     0.43860   0.48530   0.65830   0.01267  Uiso   1.00
C19    C     0.18580   0.66620   0.58420   0.01267  Uiso   1.00
C20    C     0.35560   0.63310   0.54860   0.01267  Uiso   1.00
C21    C     0.43860   0.65830   0.48530   0.01267  Uiso   1.00
C22    C     0.18580   0.41580   0.08200   0.01267  Uiso   1.00
C23    C     0.35560   0.45140   0.08450   0.01267  Uiso   1.00
C24    C     0.43860   0.51470   0.17300   0.01267  Uiso   1.00
C25    C     0.18580   0.91800   0.33380   0.01267  Uiso   1.00
C26    C     0.35560   0.91550   0.36690   0.01267  Uiso   1.00
C27    C     0.43860   0.82700   0.34170   0.01267  Uiso   1.00
C28    C     0.68580   0.33380   0.41580   0.01267  Uiso   1.00
C29    C     0.85560   0.36690   0.45140   0.01267  Uiso   1.00
C30    C     0.93860   0.34170   0.51470   0.01267  Uiso   1.00
C31    C     0.68580   0.58420   0.91800   0.01267  Uiso   1.00
C32    C     0.85560   0.54860   0.91550   0.01267  Uiso   1.00
C33    C     0.93860   0.48530   0.82700   0.01267  Uiso   1.00
C34    C     0.68580   0.08200   0.66620   0.01267  Uiso   1.00
C35    C     0.85560   0.08450   0.63310   0.01267  Uiso   1.00
C36    C     0.93860   0.17300   0.65830   0.01267  Uiso   1.00
C37    C     0.93810   1.00000   0.57550   0.01267  Uiso   1.00
C38    C     0.93810   0.57550   0.00000   0.01267  Uiso   1.00
C39    C     0.93810   0.42450   0.42450   0.01267  Uiso   1.00
C40    C     0.43810   0.00000   0.42450   0.01267  Uiso   1.00
C41    C     0.43810   0.42450   0.00000   0.01267  Uiso   1.00
C42    C     0.43810   0.57550   0.57550   0.01267  Uiso   1.00
N1     N     0.60600   1.00000   0.64280   0.01267  Uiso   1.00
N2     N     0.60600   0.64280   0.00000   0.01267  Uiso   1.00
N3     N     0.60600   0.35720   0.35720   0.01267  Uiso   1.00
N4     N     0.10600   1.00000   0.35720   0.01267  Uiso   1.00
N5     N     0.10600   0.35720   0.00000   0.01267  Uiso   1.00
N6     N     0.10600   0.64280   0.64280   0.01267  Uiso   1.00
O1     O     0.89440   0.74460   0.44620   0.01267  Uiso   1.00
O2     O     0.08750   0.82520   0.45270   0.01267  Uiso   1.00
O3     O     0.89440   0.70160   0.25540   0.01267  Uiso   1.00
O4     O     0.08750   0.62750   0.17480   0.01267  Uiso   1.00
O5     O     0.89440   0.55380   0.29840   0.01267  Uiso   1.00
O6     O     0.08750   0.54730   0.37250   0.01267  Uiso   1.00
O7     O     0.39440   0.25540   0.55380   0.01267  Uiso   1.00
O8     O     0.58750   0.17480   0.54730   0.01267  Uiso   1.00
O9     O     0.39440   0.29840   0.74460   0.01267  Uiso   1.00
O10    O     0.58750   0.37250   0.82520   0.01267  Uiso   1.00
O11    O     0.39440   0.44620   0.70160   0.01267  Uiso   1.00
O12    O     0.58750   0.45270   0.62750   0.01267  Uiso   1.00
O13    O     0.39440   0.70160   0.44620   0.01267  Uiso   1.00
O14    O     0.58750   0.62750   0.45270   0.01267  Uiso   1.00
O15    O     0.39440   0.55380   0.25540   0.01267  Uiso   1.00
O16    O     0.58750   0.54730   0.17480   0.01267  Uiso   1.00
O17    O     0.39440   0.74460   0.29840   0.01267  Uiso   1.00
O18    O     0.58750   0.82520   0.37250   0.01267  Uiso   1.00
O19    O     0.89440   0.29840   0.55380   0.01267  Uiso   1.00
O20    O     0.08750   0.37250   0.54730   0.01267  Uiso   1.00
O21    O     0.89440   0.44620   0.74460   0.01267  Uiso   1.00
O22    O     0.08750   0.45270   0.82520   0.01267  Uiso   1.00
O23    O     0.89440   0.25540   0.70160   0.01267  Uiso   1.00
O24    O     0.08750   0.17480   0.62750   0.01267  Uiso   1.00
