data_SETQUF_clean
_audit_creation_date              2014-07-02
_audit_creation_method            'Materials Studio'
_symmetry_space_group_name_H-M    'P1'
_symmetry_Int_Tables_number       1
_symmetry_cell_setting            triclinic
loop_
_symmetry_equiv_pos_as_xyz
  x,y,z
_cell_length_a                    11.2577
_cell_length_b                    11.2577
_cell_length_c                    13.7970
_cell_angle_alpha                 107.5200
_cell_angle_beta                  107.5200
_cell_angle_gamma                 90.8657
loop_
_atom_site_label
_atom_site_type_symbol
_atom_site_fract_x
_atom_site_fract_y
_atom_site_fract_z
_atom_site_U_iso_or_equiv
_atom_site_adp_type
_atom_site_occupancy
Fe1    Fe    0.99823   0.00177   0.25000   0.01267  Uiso   1.00
Fe2    Fe    0.00177   0.99823   0.75000   0.01267  Uiso   1.00
Fe3    Fe    0.00000   0.00000   0.00000   0.01267  Uiso   1.00
Fe4    Fe    0.00000   0.00000   0.50000   0.01267  Uiso   1.00
H1     H     0.00601   0.61015   0.42645   0.01267  Uiso   1.00
H2     H     0.00477   0.39111   0.37253   0.01267  Uiso   1.00
H3     H     0.00496   0.39072   0.07747   0.01267  Uiso   1.00
H4     H     0.00620   0.60976   0.13139   0.01267  Uiso   1.00
H5     H     0.38985   0.99399   0.07355   0.01267  Uiso   1.00
H6     H     0.60889   0.99523   0.12747   0.01267  Uiso   1.00
H7     H     0.60928   0.99504   0.42253   0.01267  Uiso   1.00
H8     H     0.39024   0.99380   0.36861   0.01267  Uiso   1.00
H9     H     0.99399   0.38985   0.57355   0.01267  Uiso   1.00
H10    H     0.99523   0.60889   0.62747   0.01267  Uiso   1.00
H11    H     0.99504   0.60928   0.92253   0.01267  Uiso   1.00
H12    H     0.99380   0.39024   0.86861   0.01267  Uiso   1.00
H13    H     0.61015   0.00601   0.92645   0.01267  Uiso   1.00
H14    H     0.39111   0.00477   0.87253   0.01267  Uiso   1.00
H15    H     0.39072   0.00496   0.57747   0.01267  Uiso   1.00
H16    H     0.60976   0.00620   0.63139   0.01267  Uiso   1.00
C1     C     0.00621   0.62813   0.28339   0.01267  Uiso   1.00
C2     C     0.00579   0.56439   0.35369   0.01267  Uiso   1.00
C3     C     0.00507   0.43671   0.32225   0.01267  Uiso   1.00
C4     C     0.00476   0.37274   0.22053   0.01267  Uiso   1.00
C5     C     0.00518   0.43648   0.15024   0.01267  Uiso   1.00
C6     C     0.00590   0.56416   0.18167   0.01267  Uiso   1.00
C7     C     0.00697   0.76515   0.31712   0.01267  Uiso   1.00
C8     C     0.00400   0.23572   0.18680   0.01267  Uiso   1.00
C9     C     0.37187   0.99379   0.21661   0.01267  Uiso   1.00
C10    C     0.43561   0.99421   0.14631   0.01267  Uiso   1.00
C11    C     0.56329   0.99493   0.17775   0.01267  Uiso   1.00
C12    C     0.62726   0.99524   0.27947   0.01267  Uiso   1.00
C13    C     0.56352   0.99482   0.34976   0.01267  Uiso   1.00
C14    C     0.43584   0.99410   0.31833   0.01267  Uiso   1.00
C15    C     0.23485   0.99303   0.18288   0.01267  Uiso   1.00
C16    C     0.76428   0.99600   0.31320   0.01267  Uiso   1.00
C17    C     0.99379   0.37187   0.71661   0.01267  Uiso   1.00
C18    C     0.99421   0.43561   0.64631   0.01267  Uiso   1.00
C19    C     0.99493   0.56329   0.67775   0.01267  Uiso   1.00
C20    C     0.99524   0.62726   0.77947   0.01267  Uiso   1.00
C21    C     0.99482   0.56352   0.84976   0.01267  Uiso   1.00
C22    C     0.99410   0.43584   0.81833   0.01267  Uiso   1.00
C23    C     0.99303   0.23485   0.68288   0.01267  Uiso   1.00
C24    C     0.99600   0.76428   0.81320   0.01267  Uiso   1.00
C25    C     0.62813   0.00621   0.78339   0.01267  Uiso   1.00
C26    C     0.56439   0.00579   0.85369   0.01267  Uiso   1.00
C27    C     0.43671   0.00507   0.82225   0.01267  Uiso   1.00
C28    C     0.37274   0.00476   0.72053   0.01267  Uiso   1.00
C29    C     0.43648   0.00518   0.65024   0.01267  Uiso   1.00
C30    C     0.56416   0.00590   0.68167   0.01267  Uiso   1.00
C31    C     0.76515   0.00697   0.81712   0.01267  Uiso   1.00
C32    C     0.23572   0.00400   0.68680   0.01267  Uiso   1.00
O1     O     0.00472   0.82394   0.25127   0.01267  Uiso   1.00
O2     O     0.00989   0.82473   0.41212   0.01267  Uiso   1.00
O3     O     0.01102   0.17724   0.09469   0.01267  Uiso   1.00
O4     O     0.99631   0.17583   0.24977   0.01267  Uiso   1.00
O5     O     0.93152   0.94540   0.09335   0.01267  Uiso   1.00
O6     O     0.17606   0.99528   0.24873   0.01267  Uiso   1.00
O7     O     0.17527   0.99011   0.08788   0.01267  Uiso   1.00
O8     O     0.82276   0.98898   0.40531   0.01267  Uiso   1.00
O9     O     0.82417   0.00369   0.25023   0.01267  Uiso   1.00
O10    O     0.05460   0.06848   0.40665   0.01267  Uiso   1.00
O11    O     0.99528   0.17606   0.74873   0.01267  Uiso   1.00
O12    O     0.99011   0.17527   0.58788   0.01267  Uiso   1.00
O13    O     0.98898   0.82276   0.90531   0.01267  Uiso   1.00
O14    O     0.00369   0.82417   0.75023   0.01267  Uiso   1.00
O15    O     0.06848   0.05460   0.90665   0.01267  Uiso   1.00
O16    O     0.82394   0.00472   0.75127   0.01267  Uiso   1.00
O17    O     0.82473   0.00989   0.91212   0.01267  Uiso   1.00
O18    O     0.17724   0.01102   0.59469   0.01267  Uiso   1.00
O19    O     0.17583   0.99631   0.74977   0.01267  Uiso   1.00
O20    O     0.94540   0.93152   0.59335   0.01267  Uiso   1.00
