data_SETTAO_clean
_audit_creation_date              2014-07-02
_audit_creation_method            'Materials Studio'
_symmetry_space_group_name_H-M    'P1'
_symmetry_Int_Tables_number       1
_symmetry_cell_setting            triclinic
loop_
_symmetry_equiv_pos_as_xyz
  x,y,z
_cell_length_a                    13.2350
_cell_length_b                    29.7490
_cell_length_c                    29.7490
_cell_angle_alpha                 120.0000
_cell_angle_beta                  90.0000
_cell_angle_gamma                 90.0000
loop_
_atom_site_label
_atom_site_type_symbol
_atom_site_fract_x
_atom_site_fract_y
_atom_site_fract_z
_atom_site_U_iso_or_equiv
_atom_site_adp_type
_atom_site_occupancy
H1     H     0.97490   0.63200   0.83440   0.01267  Uiso   1.00
H2     H     0.19130   0.60750   0.91440   0.01267  Uiso   1.00
H3     H     0.99500   0.54650   0.76350   0.01267  Uiso   1.00
H4     H     0.20830   0.52060   0.84510   0.01267  Uiso   1.00
H5     H     0.09380   0.46930   0.72600   0.01267  Uiso   1.00
H6     H     0.15820   0.34660   0.75080   0.01267  Uiso   1.00
H7     H     0.97490   0.20240   0.36800   0.01267  Uiso   1.00
H8     H     0.19130   0.30690   0.39250   0.01267  Uiso   1.00
H9     H     0.99500   0.21700   0.45350   0.01267  Uiso   1.00
H10    H     0.20830   0.32450   0.47940   0.01267  Uiso   1.00
H11    H     0.09380   0.25670   0.53070   0.01267  Uiso   1.00
H12    H     0.15820   0.40420   0.65340   0.01267  Uiso   1.00
H13    H     0.97490   0.16560   0.79760   0.01267  Uiso   1.00
H14    H     0.19130   0.08560   0.69310   0.01267  Uiso   1.00
H15    H     0.99500   0.23650   0.78300   0.01267  Uiso   1.00
H16    H     0.20830   0.15490   0.67550   0.01267  Uiso   1.00
H17    H     0.09380   0.27400   0.74330   0.01267  Uiso   1.00
H18    H     0.15820   0.24920   0.59580   0.01267  Uiso   1.00
H19    H     0.02510   0.63200   0.83440   0.01267  Uiso   1.00
H20    H     0.80870   0.60750   0.91440   0.01267  Uiso   1.00
H21    H     0.00500   0.54650   0.76350   0.01267  Uiso   1.00
H22    H     0.79170   0.52060   0.84510   0.01267  Uiso   1.00
H23    H     0.90620   0.46930   0.72600   0.01267  Uiso   1.00
H24    H     0.84180   0.34660   0.75080   0.01267  Uiso   1.00
H25    H     0.02510   0.20240   0.36800   0.01267  Uiso   1.00
H26    H     0.80870   0.30690   0.39250   0.01267  Uiso   1.00
H27    H     0.00500   0.21700   0.45350   0.01267  Uiso   1.00
H28    H     0.79170   0.32450   0.47940   0.01267  Uiso   1.00
H29    H     0.90620   0.25670   0.53070   0.01267  Uiso   1.00
H30    H     0.84180   0.40420   0.65340   0.01267  Uiso   1.00
H31    H     0.02510   0.16560   0.79760   0.01267  Uiso   1.00
H32    H     0.80870   0.08560   0.69310   0.01267  Uiso   1.00
H33    H     0.00500   0.23650   0.78300   0.01267  Uiso   1.00
H34    H     0.79170   0.15490   0.67550   0.01267  Uiso   1.00
H35    H     0.90620   0.27400   0.74330   0.01267  Uiso   1.00
H36    H     0.84180   0.24920   0.59580   0.01267  Uiso   1.00
C1     C     0.02210   0.60950   0.83640   0.01267  Uiso   1.00
C2     C     0.06230   0.68150   0.92390   0.01267  Uiso   1.00
C3     C     0.07900   0.62600   0.87990   0.01267  Uiso   1.00
C4     C     0.15090   0.59490   0.88460   0.01267  Uiso   1.00
C5     C     0.03390   0.55810   0.79380   0.01267  Uiso   1.00
C6     C     0.10400   0.52540   0.79790   0.01267  Uiso   1.00
C7     C     0.16170   0.54300   0.84250   0.01267  Uiso   1.00
C8     C     0.15410   0.43410   0.75580   0.01267  Uiso   1.00
C9     C     0.15400   0.38210   0.70660   0.01267  Uiso   1.00
C10    C     0.15580   0.34100   0.71680   0.01267  Uiso   1.00
C11    C     0.02210   0.22690   0.39050   0.01267  Uiso   1.00
C12    C     0.06230   0.24240   0.31850   0.01267  Uiso   1.00
C13    C     0.07900   0.25390   0.37400   0.01267  Uiso   1.00
C14    C     0.15090   0.28970   0.40510   0.01267  Uiso   1.00
C15    C     0.03390   0.23570   0.44190   0.01267  Uiso   1.00
C16    C     0.10400   0.27250   0.47460   0.01267  Uiso   1.00
C17    C     0.16170   0.29950   0.45700   0.01267  Uiso   1.00
C18    C     0.15410   0.32170   0.56590   0.01267  Uiso   1.00
C19    C     0.15400   0.32450   0.61790   0.01267  Uiso   1.00
C20    C     0.15580   0.37580   0.65900   0.01267  Uiso   1.00
C21    C     0.02210   0.16360   0.77310   0.01267  Uiso   1.00
C22    C     0.06230   0.07610   0.75760   0.01267  Uiso   1.00
C23    C     0.07900   0.12010   0.74610   0.01267  Uiso   1.00
C24    C     0.15090   0.11540   0.71030   0.01267  Uiso   1.00
C25    C     0.03390   0.20620   0.76430   0.01267  Uiso   1.00
C26    C     0.10400   0.20210   0.72750   0.01267  Uiso   1.00
C27    C     0.16170   0.15750   0.70050   0.01267  Uiso   1.00
C28    C     0.15410   0.24420   0.67830   0.01267  Uiso   1.00
C29    C     0.15400   0.29340   0.67550   0.01267  Uiso   1.00
C30    C     0.15580   0.28320   0.62420   0.01267  Uiso   1.00
C31    C     0.97790   0.60950   0.83640   0.01267  Uiso   1.00
C32    C     0.93770   0.68150   0.92390   0.01267  Uiso   1.00
C33    C     0.92100   0.62600   0.87990   0.01267  Uiso   1.00
C34    C     0.84910   0.59490   0.88460   0.01267  Uiso   1.00
C35    C     0.96610   0.55810   0.79380   0.01267  Uiso   1.00
C36    C     0.89600   0.52540   0.79790   0.01267  Uiso   1.00
C37    C     0.83830   0.54300   0.84250   0.01267  Uiso   1.00
C38    C     0.84590   0.43410   0.75580   0.01267  Uiso   1.00
C39    C     0.84600   0.38210   0.70660   0.01267  Uiso   1.00
C40    C     0.84420   0.34100   0.71680   0.01267  Uiso   1.00
C41    C     0.97790   0.22690   0.39050   0.01267  Uiso   1.00
C42    C     0.93770   0.24240   0.31850   0.01267  Uiso   1.00
C43    C     0.92100   0.25390   0.37400   0.01267  Uiso   1.00
C44    C     0.84910   0.28970   0.40510   0.01267  Uiso   1.00
C45    C     0.96610   0.23570   0.44190   0.01267  Uiso   1.00
C46    C     0.89600   0.27250   0.47460   0.01267  Uiso   1.00
C47    C     0.83830   0.29950   0.45700   0.01267  Uiso   1.00
C48    C     0.84590   0.32170   0.56590   0.01267  Uiso   1.00
C49    C     0.84600   0.32450   0.61790   0.01267  Uiso   1.00
C50    C     0.84420   0.37580   0.65900   0.01267  Uiso   1.00
C51    C     0.97790   0.16360   0.77310   0.01267  Uiso   1.00
C52    C     0.93770   0.07610   0.75760   0.01267  Uiso   1.00
C53    C     0.92100   0.12010   0.74610   0.01267  Uiso   1.00
C54    C     0.84910   0.11540   0.71030   0.01267  Uiso   1.00
C55    C     0.96610   0.20620   0.76430   0.01267  Uiso   1.00
C56    C     0.89600   0.20210   0.72750   0.01267  Uiso   1.00
C57    C     0.83830   0.15750   0.70050   0.01267  Uiso   1.00
C58    C     0.84590   0.24420   0.67830   0.01267  Uiso   1.00
C59    C     0.84600   0.29340   0.67550   0.01267  Uiso   1.00
C60    C     0.84420   0.28320   0.62420   0.01267  Uiso   1.00
N1     N     0.11540   0.47450   0.75590   0.01267  Uiso   1.00
N2     N     0.11540   0.28140   0.52550   0.01267  Uiso   1.00
N3     N     0.11540   0.24410   0.71860   0.01267  Uiso   1.00
N4     N     0.88460   0.47450   0.75590   0.01267  Uiso   1.00
N5     N     0.88460   0.28140   0.52550   0.01267  Uiso   1.00
N6     N     0.88460   0.24410   0.71860   0.01267  Uiso   1.00
O1     O     0.11210   0.69600   0.96450   0.01267  Uiso   1.00
O2     O     0.19450   0.43730   0.79530   0.01267  Uiso   1.00
O3     O     0.11210   0.26850   0.30400   0.01267  Uiso   1.00
O4     O     0.19450   0.35800   0.56270   0.01267  Uiso   1.00
O5     O     0.11210   0.03550   0.73150   0.01267  Uiso   1.00
O6     O     0.19450   0.20470   0.64200   0.01267  Uiso   1.00
O7     O     0.88790   0.69600   0.96450   0.01267  Uiso   1.00
O8     O     0.80550   0.43730   0.79530   0.01267  Uiso   1.00
O9     O     0.88790   0.26850   0.30400   0.01267  Uiso   1.00
O10    O     0.80550   0.35800   0.56270   0.01267  Uiso   1.00
O11    O     0.88790   0.03550   0.73150   0.01267  Uiso   1.00
O12    O     0.80550   0.20470   0.64200   0.01267  Uiso   1.00
O13    O     0.00000   0.70780   0.91520   0.01267  Uiso   1.00
O14    O     0.00000   0.20740   0.29220   0.01267  Uiso   1.00
O15    O     0.00000   0.08480   0.79260   0.01267  Uiso   1.00
H37    H     0.02510   0.79760   0.16560   0.01267  Uiso   1.00
H38    H     0.80870   0.69310   0.08560   0.01267  Uiso   1.00
H39    H     0.00500   0.78300   0.23650   0.01267  Uiso   1.00
H40    H     0.79170   0.67550   0.15490   0.01267  Uiso   1.00
H41    H     0.90620   0.74330   0.27400   0.01267  Uiso   1.00
H42    H     0.84180   0.59580   0.24920   0.01267  Uiso   1.00
H43    H     0.02510   0.83440   0.63200   0.01267  Uiso   1.00
H44    H     0.80870   0.91440   0.60750   0.01267  Uiso   1.00
H45    H     0.00500   0.76350   0.54650   0.01267  Uiso   1.00
H46    H     0.79170   0.84510   0.52060   0.01267  Uiso   1.00
H47    H     0.90620   0.72600   0.46930   0.01267  Uiso   1.00
H48    H     0.84180   0.75080   0.34660   0.01267  Uiso   1.00
H49    H     0.02510   0.36800   0.20240   0.01267  Uiso   1.00
H50    H     0.80870   0.39250   0.30690   0.01267  Uiso   1.00
H51    H     0.00500   0.45350   0.21700   0.01267  Uiso   1.00
H52    H     0.79170   0.47940   0.32450   0.01267  Uiso   1.00
H53    H     0.90620   0.53070   0.25670   0.01267  Uiso   1.00
H54    H     0.84180   0.65340   0.40420   0.01267  Uiso   1.00
H55    H     0.97490   0.79760   0.16560   0.01267  Uiso   1.00
H56    H     0.19130   0.69310   0.08560   0.01267  Uiso   1.00
H57    H     0.99500   0.78300   0.23650   0.01267  Uiso   1.00
H58    H     0.20830   0.67550   0.15490   0.01267  Uiso   1.00
H59    H     0.09380   0.74330   0.27400   0.01267  Uiso   1.00
H60    H     0.15820   0.59580   0.24920   0.01267  Uiso   1.00
H61    H     0.97490   0.83440   0.63200   0.01267  Uiso   1.00
H62    H     0.19130   0.91440   0.60750   0.01267  Uiso   1.00
H63    H     0.99500   0.76350   0.54650   0.01267  Uiso   1.00
H64    H     0.20830   0.84510   0.52060   0.01267  Uiso   1.00
H65    H     0.09380   0.72600   0.46930   0.01267  Uiso   1.00
H66    H     0.15820   0.75080   0.34660   0.01267  Uiso   1.00
H67    H     0.97490   0.36800   0.20240   0.01267  Uiso   1.00
H68    H     0.19130   0.39250   0.30690   0.01267  Uiso   1.00
H69    H     0.99500   0.45350   0.21700   0.01267  Uiso   1.00
H70    H     0.20830   0.47940   0.32450   0.01267  Uiso   1.00
H71    H     0.09380   0.53070   0.25670   0.01267  Uiso   1.00
H72    H     0.15820   0.65340   0.40420   0.01267  Uiso   1.00
C61    C     0.97790   0.77310   0.16360   0.01267  Uiso   1.00
C62    C     0.93770   0.75760   0.07610   0.01267  Uiso   1.00
C63    C     0.92100   0.74610   0.12010   0.01267  Uiso   1.00
C64    C     0.84910   0.71030   0.11540   0.01267  Uiso   1.00
C65    C     0.96610   0.76430   0.20620   0.01267  Uiso   1.00
C66    C     0.89600   0.72750   0.20210   0.01267  Uiso   1.00
C67    C     0.83830   0.70050   0.15750   0.01267  Uiso   1.00
C68    C     0.84590   0.67830   0.24420   0.01267  Uiso   1.00
C69    C     0.84600   0.67550   0.29340   0.01267  Uiso   1.00
C70    C     0.84420   0.62420   0.28320   0.01267  Uiso   1.00
C71    C     0.97790   0.83640   0.60950   0.01267  Uiso   1.00
C72    C     0.93770   0.92390   0.68150   0.01267  Uiso   1.00
C73    C     0.92100   0.87990   0.62600   0.01267  Uiso   1.00
C74    C     0.84910   0.88460   0.59490   0.01267  Uiso   1.00
C75    C     0.96610   0.79380   0.55810   0.01267  Uiso   1.00
C76    C     0.89600   0.79790   0.52540   0.01267  Uiso   1.00
C77    C     0.83830   0.84250   0.54300   0.01267  Uiso   1.00
C78    C     0.84590   0.75580   0.43410   0.01267  Uiso   1.00
C79    C     0.84600   0.70660   0.38210   0.01267  Uiso   1.00
C80    C     0.84420   0.71680   0.34100   0.01267  Uiso   1.00
C81    C     0.97790   0.39050   0.22690   0.01267  Uiso   1.00
C82    C     0.93770   0.31850   0.24240   0.01267  Uiso   1.00
C83    C     0.92100   0.37400   0.25390   0.01267  Uiso   1.00
C84    C     0.84910   0.40510   0.28970   0.01267  Uiso   1.00
C85    C     0.96610   0.44190   0.23570   0.01267  Uiso   1.00
C86    C     0.89600   0.47460   0.27250   0.01267  Uiso   1.00
C87    C     0.83830   0.45700   0.29950   0.01267  Uiso   1.00
C88    C     0.84590   0.56590   0.32170   0.01267  Uiso   1.00
C89    C     0.84600   0.61790   0.32450   0.01267  Uiso   1.00
C90    C     0.84420   0.65900   0.37580   0.01267  Uiso   1.00
C91    C     0.02210   0.77310   0.16360   0.01267  Uiso   1.00
C92    C     0.06230   0.75760   0.07610   0.01267  Uiso   1.00
C93    C     0.07900   0.74610   0.12010   0.01267  Uiso   1.00
C94    C     0.15090   0.71030   0.11540   0.01267  Uiso   1.00
C95    C     0.03390   0.76430   0.20620   0.01267  Uiso   1.00
C96    C     0.10400   0.72750   0.20210   0.01267  Uiso   1.00
C97    C     0.16170   0.70050   0.15750   0.01267  Uiso   1.00
C98    C     0.15410   0.67830   0.24420   0.01267  Uiso   1.00
C99    C     0.15400   0.67550   0.29340   0.01267  Uiso   1.00
C100   C     0.15580   0.62420   0.28320   0.01267  Uiso   1.00
C101   C     0.02210   0.83640   0.60950   0.01267  Uiso   1.00
C102   C     0.06230   0.92390   0.68150   0.01267  Uiso   1.00
C103   C     0.07900   0.87990   0.62600   0.01267  Uiso   1.00
C104   C     0.15090   0.88460   0.59490   0.01267  Uiso   1.00
C105   C     0.03390   0.79380   0.55810   0.01267  Uiso   1.00
C106   C     0.10400   0.79790   0.52540   0.01267  Uiso   1.00
C107   C     0.16170   0.84250   0.54300   0.01267  Uiso   1.00
C108   C     0.15410   0.75580   0.43410   0.01267  Uiso   1.00
C109   C     0.15400   0.70660   0.38210   0.01267  Uiso   1.00
C110   C     0.15580   0.71680   0.34100   0.01267  Uiso   1.00
C111   C     0.02210   0.39050   0.22690   0.01267  Uiso   1.00
C112   C     0.06230   0.31850   0.24240   0.01267  Uiso   1.00
C113   C     0.07900   0.37400   0.25390   0.01267  Uiso   1.00
C114   C     0.15090   0.40510   0.28970   0.01267  Uiso   1.00
C115   C     0.03390   0.44190   0.23570   0.01267  Uiso   1.00
C116   C     0.10400   0.47460   0.27250   0.01267  Uiso   1.00
C117   C     0.16170   0.45700   0.29950   0.01267  Uiso   1.00
C118   C     0.15410   0.56590   0.32170   0.01267  Uiso   1.00
C119   C     0.15400   0.61790   0.32450   0.01267  Uiso   1.00
C120   C     0.15580   0.65900   0.37580   0.01267  Uiso   1.00
N7     N     0.88460   0.71860   0.24410   0.01267  Uiso   1.00
N8     N     0.88460   0.75590   0.47450   0.01267  Uiso   1.00
N9     N     0.88460   0.52550   0.28140   0.01267  Uiso   1.00
N10    N     0.11540   0.71860   0.24410   0.01267  Uiso   1.00
N11    N     0.11540   0.75590   0.47450   0.01267  Uiso   1.00
N12    N     0.11540   0.52550   0.28140   0.01267  Uiso   1.00
O16    O     0.88790   0.73150   0.03550   0.01267  Uiso   1.00
O17    O     0.80550   0.64200   0.20470   0.01267  Uiso   1.00
O18    O     0.88790   0.96450   0.69600   0.01267  Uiso   1.00
O19    O     0.80550   0.79530   0.43730   0.01267  Uiso   1.00
O20    O     0.88790   0.30400   0.26850   0.01267  Uiso   1.00
O21    O     0.80550   0.56270   0.35800   0.01267  Uiso   1.00
O22    O     0.11210   0.73150   0.03550   0.01267  Uiso   1.00
O23    O     0.19450   0.64200   0.20470   0.01267  Uiso   1.00
O24    O     0.11210   0.96450   0.69600   0.01267  Uiso   1.00
O25    O     0.19450   0.79530   0.43730   0.01267  Uiso   1.00
O26    O     0.11210   0.30400   0.26850   0.01267  Uiso   1.00
O27    O     0.19450   0.56270   0.35800   0.01267  Uiso   1.00
O28    O     0.00000   0.79260   0.08480   0.01267  Uiso   1.00
O29    O     0.00000   0.91520   0.70780   0.01267  Uiso   1.00
O30    O     0.00000   0.29220   0.20740   0.01267  Uiso   1.00
Zn1    Zn    0.00000   0.77003   0.00000   0.01267  Uiso   1.00
Zn2    Zn    0.00000   0.22997   0.22997   0.01267  Uiso   1.00
Zn3    Zn    0.00000   0.00000   0.77003   0.01267  Uiso   1.00
Cr1    Cr    0.50000   0.93547   0.93547   0.01267  Uiso   1.00
Cr2    Cr    0.50000   0.00000   0.06453   0.01267  Uiso   1.00
Cr3    Cr    0.50000   0.06453   0.00000   0.01267  Uiso   1.00
H73    H     0.26510   0.83420   0.92570   0.01267  Uiso   1.00
H74    H     0.13330   0.78210   0.92590   0.01267  Uiso   1.00
H75    H     0.26510   0.09150   0.16580   0.01267  Uiso   1.00
H76    H     0.13330   0.14380   0.21790   0.01267  Uiso   1.00
H77    H     0.26510   0.07430   0.90850   0.01267  Uiso   1.00
H78    H     0.13330   0.07410   0.85620   0.01267  Uiso   1.00
H79    H     0.73490   0.83420   0.92570   0.01267  Uiso   1.00
H80    H     0.86670   0.78210   0.92590   0.01267  Uiso   1.00
H81    H     0.73490   0.09150   0.16580   0.01267  Uiso   1.00
H82    H     0.86670   0.14380   0.21790   0.01267  Uiso   1.00
H83    H     0.73490   0.07430   0.90850   0.01267  Uiso   1.00
H84    H     0.86670   0.07410   0.85620   0.01267  Uiso   1.00
H85    H     0.73490   0.90850   0.07430   0.01267  Uiso   1.00
H86    H     0.86670   0.85620   0.07410   0.01267  Uiso   1.00
H87    H     0.73490   0.92570   0.83420   0.01267  Uiso   1.00
H88    H     0.86670   0.92590   0.78210   0.01267  Uiso   1.00
H89    H     0.73490   0.16580   0.09150   0.01267  Uiso   1.00
H90    H     0.86670   0.21790   0.14380   0.01267  Uiso   1.00
H91    H     0.26510   0.90850   0.07430   0.01267  Uiso   1.00
H92    H     0.13330   0.85620   0.07410   0.01267  Uiso   1.00
H93    H     0.26510   0.92570   0.83420   0.01267  Uiso   1.00
H94    H     0.13330   0.92590   0.78210   0.01267  Uiso   1.00
H95    H     0.26510   0.16580   0.09150   0.01267  Uiso   1.00
H96    H     0.13330   0.21790   0.14380   0.01267  Uiso   1.00
C121   C     0.23910   0.84040   0.95770   0.01267  Uiso   1.00
C122   C     0.15740   0.80880   0.95790   0.01267  Uiso   1.00
C123   C     0.23910   0.11730   0.15960   0.01267  Uiso   1.00
C124   C     0.15740   0.14910   0.19120   0.01267  Uiso   1.00
C125   C     0.23910   0.04230   0.88270   0.01267  Uiso   1.00
C126   C     0.15740   0.04210   0.85090   0.01267  Uiso   1.00
C127   C     0.76090   0.84040   0.95770   0.01267  Uiso   1.00
C128   C     0.84260   0.80880   0.95790   0.01267  Uiso   1.00
C129   C     0.76090   0.11730   0.15960   0.01267  Uiso   1.00
C130   C     0.84260   0.14910   0.19120   0.01267  Uiso   1.00
C131   C     0.76090   0.04230   0.88270   0.01267  Uiso   1.00
C132   C     0.84260   0.04210   0.85090   0.01267  Uiso   1.00
C133   C     0.76090   0.88270   0.04230   0.01267  Uiso   1.00
C134   C     0.84260   0.85090   0.04210   0.01267  Uiso   1.00
C135   C     0.76090   0.95770   0.84040   0.01267  Uiso   1.00
C136   C     0.84260   0.95790   0.80880   0.01267  Uiso   1.00
C137   C     0.76090   0.15960   0.11730   0.01267  Uiso   1.00
C138   C     0.84260   0.19120   0.14910   0.01267  Uiso   1.00
C139   C     0.23910   0.88270   0.04230   0.01267  Uiso   1.00
C140   C     0.15740   0.85090   0.04210   0.01267  Uiso   1.00
C141   C     0.23910   0.95770   0.84040   0.01267  Uiso   1.00
C142   C     0.15740   0.95790   0.80880   0.01267  Uiso   1.00
C143   C     0.23910   0.15960   0.11730   0.01267  Uiso   1.00
C144   C     0.15740   0.19120   0.14910   0.01267  Uiso   1.00
C145   C     0.36070   0.91110   0.00000   0.01267  Uiso   1.00
C146   C     0.27810   0.87690  -0.00000   0.01267  Uiso   1.00
C147   C     0.36070   0.08890   0.08890   0.01267  Uiso   1.00
C148   C     0.27810   0.12310   0.12310   0.01267  Uiso   1.00
C149   C     0.36070   0.00000   0.91110   0.01267  Uiso   1.00
C150   C     0.27810   0.00000   0.87690   0.01267  Uiso   1.00
C151   C     0.63930   0.91110   0.00000   0.01267  Uiso   1.00
C152   C     0.72190   0.87690  -0.00000   0.01267  Uiso   1.00
C153   C     0.63930   0.08890   0.08890   0.01267  Uiso   1.00
C154   C     0.72190   0.12310   0.12310   0.01267  Uiso   1.00
C155   C     0.63930   0.00000   0.91110   0.01267  Uiso   1.00
C156   C     0.72190   0.00000   0.87690   0.01267  Uiso   1.00
N13    N     0.11490   0.81510   0.00000   0.01267  Uiso   1.00
N14    N     0.11490   0.18490   0.18490   0.01267  Uiso   1.00
N15    N     0.11490   0.00000   0.81510   0.01267  Uiso   1.00
N16    N     0.88510   0.81510   0.00000   0.01267  Uiso   1.00
N17    N     0.88510   0.18490   0.18490   0.01267  Uiso   1.00
N18    N     0.88510  -0.00000   0.81510   0.01267  Uiso   1.00
O31    O     0.39160   0.90310   0.95580   0.01267  Uiso   1.00
O32    O     0.39160   0.05270   0.09690   0.01267  Uiso   1.00
O33    O     0.39160   0.04420   0.94730   0.01267  Uiso   1.00
O34    O     0.60840   0.90310   0.95580   0.01267  Uiso   1.00
O35    O     0.60840   0.05270   0.09690   0.01267  Uiso   1.00
O36    O     0.60840   0.04420   0.94730   0.01267  Uiso   1.00
O37    O     0.60840   0.94730   0.04420   0.01267  Uiso   1.00
O38    O     0.60840   0.95580   0.90310   0.01267  Uiso   1.00
O39    O     0.60840   0.09690   0.05270   0.01267  Uiso   1.00
O40    O     0.39160   0.94730   0.04420   0.01267  Uiso   1.00
O41    O     0.39160   0.95580   0.90310   0.01267  Uiso   1.00
O42    O     0.39160   0.09690   0.05270   0.01267  Uiso   1.00
O43    O     0.50000   0.00000   0.00000   0.01267  Uiso   1.00
