data_SIWGUB_clean
_audit_creation_date              2014-07-02
_audit_creation_method            'Materials Studio'
_symmetry_space_group_name_H-M    'P1'
_symmetry_Int_Tables_number       1
_symmetry_cell_setting            triclinic
loop_
_symmetry_equiv_pos_as_xyz
  x,y,z
_cell_length_a                    5.1400
_cell_length_b                    9.8560
_cell_length_c                    10.6730
_cell_angle_alpha                 77.3100
_cell_angle_beta                  80.6970
_cell_angle_gamma                 85.0240
loop_
_atom_site_label
_atom_site_type_symbol
_atom_site_fract_x
_atom_site_fract_y
_atom_site_fract_z
_atom_site_U_iso_or_equiv
_atom_site_adp_type
_atom_site_occupancy
Cu1    Cu    0.79250   0.92974   0.51680   0.01267  Uiso   1.00
Cu2    Cu    0.20750   0.07026   0.48320   0.01267  Uiso   1.00
H1     H     0.26600   0.03450   0.08140   0.01267  Uiso   1.00
H2     H     0.88170   0.87470   0.12120   0.01267  Uiso   1.00
H3     H     0.14540   0.80120   0.15420   0.01267  Uiso   1.00
H4     H     0.73640   0.09850   0.09950   0.01267  Uiso   1.00
H5     H     0.95080   0.20640   0.07650   0.01267  Uiso   1.00
H6     H     0.56880   0.65370   0.56870   0.01267  Uiso   1.00
H7     H     0.16570   0.50640   0.57240   0.01267  Uiso   1.00
H8     H     0.22190   0.51410   0.71450   0.01267  Uiso   1.00
H9     H     0.32860   0.60880   0.36710   0.01267  Uiso   1.00
H10    H     0.62060   0.69980   0.34340   0.01267  Uiso   1.00
H11    H     0.73400   0.96550   0.91860   0.01267  Uiso   1.00
H12    H     0.11830   0.12530   0.87880   0.01267  Uiso   1.00
H13    H     0.85460   0.19880   0.84580   0.01267  Uiso   1.00
H14    H     0.26360   0.90150   0.90050   0.01267  Uiso   1.00
H15    H     0.04920   0.79360   0.92350   0.01267  Uiso   1.00
H16    H     0.43120   0.34630   0.43130   0.01267  Uiso   1.00
H17    H     0.83430   0.49360   0.42760   0.01267  Uiso   1.00
H18    H     0.77810   0.48590   0.28550   0.01267  Uiso   1.00
H19    H     0.67140   0.39120   0.63290   0.01267  Uiso   1.00
H20    H     0.37940   0.30020   0.65660   0.01267  Uiso   1.00
C1     C     0.10300   0.00470   0.11890   0.01267  Uiso   1.00
C2     C     0.06600   0.87100   0.08760   0.01267  Uiso   1.00
C3     C     0.92200   0.11870   0.05960   0.01267  Uiso   1.00
C4     C     0.07300   0.00200   0.26250   0.01267  Uiso   1.00
C5     C     0.43800   0.63530   0.53490   0.01267  Uiso   1.00
C6     C     0.30200   0.50700   0.61550   0.01267  Uiso   1.00
C7     C     0.52200   0.62440   0.39560   0.01267  Uiso   1.00
C8     C     0.27030   0.76690   0.53790   0.01267  Uiso   1.00
C9     C     0.89700   0.99530   0.88110   0.01267  Uiso   1.00
C10    C     0.93400   0.12900   0.91240   0.01267  Uiso   1.00
C11    C     0.07800   0.88130   0.94040   0.01267  Uiso   1.00
C12    C     0.92700   0.99800   0.73750   0.01267  Uiso   1.00
C13    C     0.56200   0.36470   0.46510   0.01267  Uiso   1.00
C14    C     0.69800   0.49300   0.38450   0.01267  Uiso   1.00
C15    C     0.47800   0.37560   0.60440   0.01267  Uiso   1.00
C16    C     0.72970   0.23310   0.46210   0.01267  Uiso   1.00
O1     O     0.88230   0.93750   0.33320   0.01267  Uiso   1.00
O2     O     0.23650   0.06200   0.30250   0.01267  Uiso   1.00
O3     O     0.37800   0.88000   0.52050   0.01267  Uiso   1.00
O4     O     0.02260   0.76170   0.54620   0.01267  Uiso   1.00
O5     O     0.11770   0.06250   0.66680   0.01267  Uiso   1.00
O6     O     0.76350   0.93800   0.69750   0.01267  Uiso   1.00
O7     O     0.62200   0.12000   0.47950   0.01267  Uiso   1.00
O8     O     0.97740   0.23830   0.45380   0.01267  Uiso   1.00
