data_SOBZOY_clean
_audit_creation_date              2014-07-02
_audit_creation_method            'Materials Studio'
_symmetry_space_group_name_H-M    'P1'
_symmetry_Int_Tables_number       1
_symmetry_cell_setting            triclinic
loop_
_symmetry_equiv_pos_as_xyz
  x,y,z
_cell_length_a                    7.0420
_cell_length_b                    7.6520
_cell_length_c                    11.3480
_cell_angle_alpha                 90.0000
_cell_angle_beta                  106.0700
_cell_angle_gamma                 90.0000
loop_
_atom_site_label
_atom_site_type_symbol
_atom_site_fract_x
_atom_site_fract_y
_atom_site_fract_z
_atom_site_U_iso_or_equiv
_atom_site_adp_type
_atom_site_occupancy
Cd1    Cd    0.00000   0.00000   0.00000   0.01267  Uiso   1.00
Ni1    Ni    0.50000   0.50000  -0.00000   0.01267  Uiso   1.00
C1     C     0.69430   0.67150   0.03870   0.01267  Uiso   1.00
C2     C     0.30570   0.67150   0.96130   0.01267  Uiso   1.00
C3     C     0.30570   0.32850   0.96130   0.01267  Uiso   1.00
C4     C     0.69430   0.32850   0.03870   0.01267  Uiso   1.00
C5     C     0.57270   0.00000   0.78880   0.01267  Uiso   1.00
C6     C     0.45160   0.00000   0.65700   0.01267  Uiso   1.00
C7     C     0.23130   0.00000   0.64120   0.01267  Uiso   1.00
C8     C     0.11270   0.00000   0.50650   0.01267  Uiso   1.00
C9     C     0.42730   0.00000   0.21120   0.01267  Uiso   1.00
C10    C     0.54840   0.00000   0.34300   0.01267  Uiso   1.00
C11    C     0.76870   0.00000   0.35880   0.01267  Uiso   1.00
C12    C     0.88730   0.00000   0.49350   0.01267  Uiso   1.00
N1     N     0.81170   0.77840   0.05830   0.01267  Uiso   1.00
N2     N     0.18830   0.77840   0.94170   0.01267  Uiso   1.00
N3     N     0.18830   0.22160   0.94170   0.01267  Uiso   1.00
N4     N     0.81170   0.22160   0.05830   0.01267  Uiso   1.00
N5     N     0.78940   0.00000   0.80410   0.01267  Uiso   1.00
N6     N     0.21060   0.00000   0.19590   0.01267  Uiso   1.00
