data_SOWYOS_clean
_audit_creation_date              2014-07-02
_audit_creation_method            'Materials Studio'
_symmetry_space_group_name_H-M    'P1'
_symmetry_Int_Tables_number       1
_symmetry_cell_setting            triclinic
loop_
_symmetry_equiv_pos_as_xyz
  x,y,z
_cell_length_a                    11.2310
_cell_length_b                    11.7590
_cell_length_c                    16.9270
_cell_angle_alpha                 93.9100
_cell_angle_beta                  90.0000
_cell_angle_gamma                 90.0000
loop_
_atom_site_label
_atom_site_type_symbol
_atom_site_fract_x
_atom_site_fract_y
_atom_site_fract_z
_atom_site_U_iso_or_equiv
_atom_site_adp_type
_atom_site_occupancy
Rb1    Rb    0.51890   0.14010   0.43080   0.01267  Uiso   1.00
Rb2    Rb    0.48110   0.85990   0.56920   0.01267  Uiso   1.00
Si1    Si    0.42610   0.84250   0.34250   0.01267  Uiso   1.00
Si2    Si    0.22660   0.96490   0.43160   0.01267  Uiso   1.00
Si3    Si    0.57390   0.15750   0.65750   0.01267  Uiso   1.00
Si4    Si    0.77340   0.03510   0.56840   0.01267  Uiso   1.00
H1     H     0.33850   0.90760   0.22620   0.01267  Uiso   1.00
H2     H     0.46500   0.96560   0.24540   0.01267  Uiso   1.00
H3     H     0.45770   0.84790   0.19240   0.01267  Uiso   1.00
H4     H     0.40400   0.63750   0.30470   0.01267  Uiso   1.00
H5     H     0.27860   0.70910   0.30880   0.01267  Uiso   1.00
H6     H     0.34480   0.67710   0.39070   0.01267  Uiso   1.00
H7     H     0.62260   0.75330   0.32560   0.01267  Uiso   1.00
H8     H     0.59360   0.77710   0.41240   0.01267  Uiso   1.00
H9     H     0.65700   0.86580   0.36760   0.01267  Uiso   1.00
H10    H     0.11620   0.13370   0.46930   0.01267  Uiso   1.00
H11    H     0.25720   0.14810   0.49950   0.01267  Uiso   1.00
H12    H     0.22530   0.14190   0.40280   0.01267  Uiso   1.00
H13    H     0.03680   0.95800   0.36710   0.01267  Uiso   1.00
H14    H     0.10070   0.84220   0.34220   0.01267  Uiso   1.00
H15    H     0.13020   0.95180   0.29800   0.01267  Uiso   1.00
H16    H     0.09020   0.91800   0.50760   0.01267  Uiso   1.00
H17    H     0.20640   0.93080   0.56900   0.01267  Uiso   1.00
H18    H     0.18360   0.80870   0.51480   0.01267  Uiso   1.00
H19    H     0.58280   0.52680   0.39670   0.01267  Uiso   1.00
H20    H     0.67810   0.43970   0.43960   0.01267  Uiso   1.00
H21    H     0.33560   0.37300   0.48180   0.01267  Uiso   1.00
H22    H     0.38290   0.48530   0.42670   0.01267  Uiso   1.00
H23    H     0.66150   0.09240   0.77380   0.01267  Uiso   1.00
H24    H     0.53500   0.03440   0.75460   0.01267  Uiso   1.00
H25    H     0.54230   0.15210   0.80760   0.01267  Uiso   1.00
H26    H     0.59600   0.36250   0.69530   0.01267  Uiso   1.00
H27    H     0.72140   0.29090   0.69120   0.01267  Uiso   1.00
H28    H     0.65520   0.32290   0.60930   0.01267  Uiso   1.00
H29    H     0.37740   0.24670   0.67440   0.01267  Uiso   1.00
H30    H     0.40640   0.22290   0.58760   0.01267  Uiso   1.00
H31    H     0.34300   0.13420   0.63240   0.01267  Uiso   1.00
H32    H     0.88380   0.86630   0.53070   0.01267  Uiso   1.00
H33    H     0.74280   0.85190   0.50050   0.01267  Uiso   1.00
H34    H     0.77470   0.85810   0.59720   0.01267  Uiso   1.00
H35    H     0.96320   0.04200   0.63290   0.01267  Uiso   1.00
H36    H     0.89930   0.15780   0.65780   0.01267  Uiso   1.00
H37    H     0.86980   0.04820   0.70200   0.01267  Uiso   1.00
H38    H     0.90980   0.08200   0.49240   0.01267  Uiso   1.00
H39    H     0.79360   0.06920   0.43100   0.01267  Uiso   1.00
H40    H     0.81640   0.19130   0.48520   0.01267  Uiso   1.00
H41    H     0.41720   0.47320   0.60330   0.01267  Uiso   1.00
H42    H     0.32190   0.56030   0.56040   0.01267  Uiso   1.00
H43    H     0.66440   0.62700   0.51820   0.01267  Uiso   1.00
H44    H     0.61710   0.51470   0.57330   0.01267  Uiso   1.00
C1     C     0.42270   0.89160   0.23870   0.01267  Uiso   1.00
C2     C     0.35570   0.69590   0.33500   0.01267  Uiso   1.00
C3     C     0.58760   0.81400   0.36180   0.01267  Uiso   1.00
C4     C     0.20160   0.12250   0.45650   0.01267  Uiso   1.00
C5     C     0.11490   0.92500   0.35120   0.01267  Uiso   1.00
C6     C     0.17120   0.89210   0.52050   0.01267  Uiso   1.00
C7     C     0.59580   0.48270   0.44860   0.01267  Uiso   1.00
C8     C     0.39830   0.43960   0.47760   0.01267  Uiso   1.00
C9     C     0.57730   0.10840   0.76130   0.01267  Uiso   1.00
C10    C     0.64430   0.30410   0.66500   0.01267  Uiso   1.00
C11    C     0.41240   0.18600   0.63820   0.01267  Uiso   1.00
C12    C     0.79840   0.87750   0.54350   0.01267  Uiso   1.00
C13    C     0.88510   0.07500   0.64880   0.01267  Uiso   1.00
C14    C     0.82880   0.10790   0.47950   0.01267  Uiso   1.00
C15    C     0.40420   0.51730   0.55140   0.01267  Uiso   1.00
C16    C     0.60170   0.56040   0.52240   0.01267  Uiso   1.00
N1     N     0.36950   0.93430   0.41060   0.01267  Uiso   1.00
N2     N     0.63050   0.06570   0.58940   0.01267  Uiso   1.00
O1     O     0.51400   0.39260   0.45830   0.01267  Uiso   1.00
O2     O     0.48600   0.60740   0.54170   0.01267  Uiso   1.00
Rb3    Rb    0.01890   0.35990   0.06920   0.01267  Uiso   1.00
Rb4    Rb    0.98110   0.64010   0.93080   0.01267  Uiso   1.00
Si5    Si    0.92610   0.65750   0.15750   0.01267  Uiso   1.00
Si6    Si    0.72660   0.53510   0.06840   0.01267  Uiso   1.00
Si7    Si    0.07390   0.34250   0.84250   0.01267  Uiso   1.00
Si8    Si    0.27340   0.46490   0.93160   0.01267  Uiso   1.00
H45    H     0.83850   0.59240   0.27380   0.01267  Uiso   1.00
H46    H     0.96500   0.53440   0.25460   0.01267  Uiso   1.00
H47    H     0.95770   0.65210   0.30760   0.01267  Uiso   1.00
H48    H     0.90400   0.86250   0.19530   0.01267  Uiso   1.00
H49    H     0.77860   0.79090   0.19120   0.01267  Uiso   1.00
H50    H     0.84480   0.82290   0.10930   0.01267  Uiso   1.00
H51    H     0.12260   0.74670   0.17440   0.01267  Uiso   1.00
H52    H     0.09360   0.72290   0.08760   0.01267  Uiso   1.00
H53    H     0.15700   0.63420   0.13240   0.01267  Uiso   1.00
H54    H     0.61620   0.36630   0.03070   0.01267  Uiso   1.00
H55    H     0.75720   0.35190   0.00050   0.01267  Uiso   1.00
H56    H     0.72530   0.35810   0.09720   0.01267  Uiso   1.00
H57    H     0.53680   0.54200   0.13290   0.01267  Uiso   1.00
H58    H     0.60070   0.65780   0.15780   0.01267  Uiso   1.00
H59    H     0.63020   0.54820   0.20200   0.01267  Uiso   1.00
H60    H     0.59020   0.58200   0.99240   0.01267  Uiso   1.00
H61    H     0.70640   0.56920   0.93100   0.01267  Uiso   1.00
H62    H     0.68360   0.69130   0.98520   0.01267  Uiso   1.00
H63    H     0.08280   0.97320   0.10330   0.01267  Uiso   1.00
H64    H     0.17810   0.06030   0.06040   0.01267  Uiso   1.00
H65    H     0.83560   0.12700   0.01820   0.01267  Uiso   1.00
H66    H     0.88290   0.01470   0.07330   0.01267  Uiso   1.00
H67    H     0.16150   0.40760   0.72620   0.01267  Uiso   1.00
H68    H     0.03500   0.46560   0.74540   0.01267  Uiso   1.00
H69    H     0.04230   0.34790   0.69240   0.01267  Uiso   1.00
H70    H     0.09600   0.13750   0.80470   0.01267  Uiso   1.00
H71    H     0.22140   0.20910   0.80880   0.01267  Uiso   1.00
H72    H     0.15520   0.17710   0.89070   0.01267  Uiso   1.00
H73    H     0.87740   0.25330   0.82560   0.01267  Uiso   1.00
H74    H     0.90640   0.27710   0.91240   0.01267  Uiso   1.00
H75    H     0.84300   0.36580   0.86760   0.01267  Uiso   1.00
H76    H     0.38380   0.63370   0.96930   0.01267  Uiso   1.00
H77    H     0.24280   0.64810   0.99950   0.01267  Uiso   1.00
H78    H     0.27470   0.64190   0.90280   0.01267  Uiso   1.00
H79    H     0.46320   0.45800   0.86710   0.01267  Uiso   1.00
H80    H     0.39930   0.34220   0.84220   0.01267  Uiso   1.00
H81    H     0.36980   0.45180   0.79800   0.01267  Uiso   1.00
H82    H     0.40980   0.41800   0.00760   0.01267  Uiso   1.00
H83    H     0.29360   0.43080   0.06900   0.01267  Uiso   1.00
H84    H     0.31640   0.30870   0.01480   0.01267  Uiso   1.00
H85    H     0.91720   0.02680   0.89670   0.01267  Uiso   1.00
H86    H     0.82190   0.93970   0.93960   0.01267  Uiso   1.00
H87    H     0.16440   0.87300   0.98180   0.01267  Uiso   1.00
H88    H     0.11710   0.98530   0.92670   0.01267  Uiso   1.00
C17    C     0.92270   0.60840   0.26130   0.01267  Uiso   1.00
C18    C     0.85570   0.80410   0.16500   0.01267  Uiso   1.00
C19    C     0.08760   0.68600   0.13820   0.01267  Uiso   1.00
C20    C     0.70160   0.37750   0.04350   0.01267  Uiso   1.00
C21    C     0.61490   0.57500   0.14880   0.01267  Uiso   1.00
C22    C     0.67120   0.60790   0.97950   0.01267  Uiso   1.00
C23    C     0.09580   0.01730   0.05140   0.01267  Uiso   1.00
C24    C     0.89830   0.06040   0.02240   0.01267  Uiso   1.00
C25    C     0.07730   0.39160   0.73870   0.01267  Uiso   1.00
C26    C     0.14430   0.19590   0.83500   0.01267  Uiso   1.00
C27    C     0.91240   0.31400   0.86180   0.01267  Uiso   1.00
C28    C     0.29840   0.62250   0.95650   0.01267  Uiso   1.00
C29    C     0.38510   0.42500   0.85120   0.01267  Uiso   1.00
C30    C     0.32880   0.39210   0.02050   0.01267  Uiso   1.00
C31    C     0.90420   0.98270   0.94860   0.01267  Uiso   1.00
C32    C     0.10170   0.93960   0.97760   0.01267  Uiso   1.00
N3     N     0.86950   0.56570   0.08940   0.01267  Uiso   1.00
N4     N     0.13050   0.43430   0.91060   0.01267  Uiso   1.00
O3     O     0.01400   0.10740   0.04170   0.01267  Uiso   1.00
O4     O     0.98600   0.89260   0.95830   0.01267  Uiso   1.00
