data_SOXZIP_clean
_audit_creation_date              2014-07-02
_audit_creation_method            'Materials Studio'
_symmetry_space_group_name_H-M    'P1'
_symmetry_Int_Tables_number       1
_symmetry_cell_setting            triclinic
loop_
_symmetry_equiv_pos_as_xyz
  x,y,z
_cell_length_a                    13.1873
_cell_length_b                    14.3168
_cell_length_c                    16.0933
_cell_angle_alpha                 68.1156
_cell_angle_beta                  65.8131
_cell_angle_gamma                 62.5771
loop_
_atom_site_label
_atom_site_type_symbol
_atom_site_fract_x
_atom_site_fract_y
_atom_site_fract_z
_atom_site_U_iso_or_equiv
_atom_site_adp_type
_atom_site_occupancy
Ba1    Ba    0.44810   0.88270   0.14150   0.01267  Uiso   1.00
Ba2    Ba    0.97230   0.61730   0.35850   0.01267  Uiso   1.00
Ba3    Ba    0.55190   0.11730   0.85850   0.01267  Uiso   1.00
Ba4    Ba    0.02770   0.38270   0.64150   0.01267  Uiso   1.00
Ba5    Ba    0.28030   0.75000   0.75000   0.01267  Uiso   1.00
Ba6    Ba    0.71970   0.25000   0.25000   0.01267  Uiso   1.00
Co1    Co    0.50000   0.50000   0.50000   0.01267  Uiso   1.00
Co2    Co    0.00000   0.00000   0.00000   0.01267  Uiso   1.00
Co3    Co    0.50000   0.00000   0.50000   0.01267  Uiso   1.00
Co4    Co    0.50000   0.50000  -0.00000   0.01267  Uiso   1.00
C1     C     0.27610   0.65770   0.48850   0.01267  Uiso   1.00
C2     C     0.31960   0.68150   0.54930   0.01267  Uiso   1.00
C3     C     0.41970   0.60400   0.34140   0.01267  Uiso   1.00
C4     C     0.52670   0.62900   0.32520   0.01267  Uiso   1.00
C5     C     0.31130   0.48610   0.46110   0.01267  Uiso   1.00
C6     C     0.20240   0.53230   0.42570   0.01267  Uiso   1.00
C7     C     0.50410   0.97510   0.68170   0.01267  Uiso   1.00
C8     C     0.43490   0.91330   0.68690   0.01267  Uiso   1.00
C9     C     0.46850   0.15770   0.57910   0.01267  Uiso   1.00
C10    C     0.34970   0.17900   0.56940   0.01267  Uiso   1.00
C11    C     0.67350   0.02040   0.55680   0.01267  Uiso   1.00
C12    C     0.71320   0.05530   0.61550   0.01267  Uiso   1.00
C13    C     0.92230   0.84230   0.01150   0.01267  Uiso   1.00
C14    C     0.05040   0.81850   0.95070   0.01267  Uiso   1.00
C15    C     0.86510   0.89600   0.15860   0.01267  Uiso   1.00
C16    C     0.98090   0.87100   0.17480   0.01267  Uiso   1.00
C17    C     0.75850   0.01390   0.03890   0.01267  Uiso   1.00
C18    C     0.66040   0.96770   0.07430   0.01267  Uiso   1.00
C19    C     0.66090   0.52490   0.81830   0.01267  Uiso   1.00
C20    C     0.53510   0.58670   0.81310   0.01267  Uiso   1.00
C21    C     0.70530   0.34230   0.92090   0.01267  Uiso   1.00
C22    C     0.59810   0.32100   0.93060   0.01267  Uiso   1.00
C23    C     0.75070   0.47960   0.94320   0.01267  Uiso   1.00
C24    C     0.88400   0.44470   0.88450   0.01267  Uiso   1.00
C25    C     0.72390   0.34230   0.51150   0.01267  Uiso   1.00
C26    C     0.68040   0.31850   0.45070   0.01267  Uiso   1.00
C27    C     0.58030   0.39600   0.65860   0.01267  Uiso   1.00
C28    C     0.47330   0.37100   0.67480   0.01267  Uiso   1.00
C29    C     0.68870   0.51390   0.53890   0.01267  Uiso   1.00
C30    C     0.79760   0.46770   0.57430   0.01267  Uiso   1.00
C31    C     0.49590   0.02490   0.31830   0.01267  Uiso   1.00
C32    C     0.56510   0.08670   0.31310   0.01267  Uiso   1.00
C33    C     0.53150   0.84230   0.42090   0.01267  Uiso   1.00
C34    C     0.65030   0.82100   0.43060   0.01267  Uiso   1.00
C35    C     0.32650   0.97960   0.44320   0.01267  Uiso   1.00
C36    C     0.28680   0.94470   0.38450   0.01267  Uiso   1.00
C37    C     0.07770   0.15770   0.98850   0.01267  Uiso   1.00
C38    C     0.94960   0.18150   0.04930   0.01267  Uiso   1.00
C39    C     0.13490   0.10400   0.84140   0.01267  Uiso   1.00
C40    C     0.01910   0.12900   0.82520   0.01267  Uiso   1.00
C41    C     0.24150   0.98610   0.96110   0.01267  Uiso   1.00
C42    C     0.33960   0.03230   0.92570   0.01267  Uiso   1.00
C43    C     0.33910   0.47510   0.18170   0.01267  Uiso   1.00
C44    C     0.46490   0.41330   0.18690   0.01267  Uiso   1.00
C45    C     0.29470   0.65770   0.07910   0.01267  Uiso   1.00
C46    C     0.40190   0.67900   0.06940   0.01267  Uiso   1.00
C47    C     0.24930   0.52040   0.05680   0.01267  Uiso   1.00
C48    C     0.11600   0.55530   0.11550   0.01267  Uiso   1.00
N1     N     0.36480   0.56580   0.44500   0.01267  Uiso   1.00
N2     N     0.54450   0.03970   0.58490   0.01267  Uiso   1.00
N3     N     0.87560   0.93420   0.05500   0.01267  Uiso   1.00
N4     N     0.66910   0.46030   0.91510   0.01267  Uiso   1.00
N5     N     0.63520   0.43420   0.55500   0.01267  Uiso   1.00
N6     N     0.45550   0.96030   0.41510   0.01267  Uiso   1.00
N7     N     0.12440   0.06580   0.94500   0.01267  Uiso   1.00
N8     N     0.33090   0.53970   0.08490   0.01267  Uiso   1.00
O1     O     0.42140   0.61640   0.56120   0.01267  Uiso   1.00
O2     O     0.25740   0.76160   0.58460   0.01267  Uiso   1.00
O3     O     0.57450   0.58590   0.39270   0.01267  Uiso   1.00
O4     O     0.56800   0.68410   0.24910   0.01267  Uiso   1.00
O5     O     0.13330   0.48090   0.46570   0.01267  Uiso   1.00
O6     O     0.18890   0.61280   0.35880   0.01267  Uiso   1.00
O7     O     0.43510   0.90630   0.60930   0.01267  Uiso   1.00
O8     O     0.38240   0.86920   0.76540   0.01267  Uiso   1.00
O9     O     0.34980   0.11510   0.53010   0.01267  Uiso   1.00
O10    O     0.26110   0.25530   0.59610   0.01267  Uiso   1.00
O11    O     0.63760   0.10880   0.67380   0.01267  Uiso   1.00
O12    O     0.82480   0.02500   0.59700   0.01267  Uiso   1.00
O13    O     0.09900   0.88360   0.93880   0.01267  Uiso   1.00
O14    O     0.10360   0.73840   0.91540   0.01267  Uiso   1.00
O15    O     0.05310   0.91410   0.10730   0.01267  Uiso   1.00
O16    O     0.00120   0.81590   0.25090   0.01267  Uiso   1.00
O17    O     0.57990   0.01910   0.03430   0.01267  Uiso   1.00
O18    O     0.66050   0.88720   0.14120   0.01267  Uiso   1.00
O19    O     0.45070   0.59370   0.89070   0.01267  Uiso   1.00
O20    O     0.51700   0.63080   0.73460   0.01267  Uiso   1.00
O21    O     0.49500   0.38490   0.96990   0.01267  Uiso   1.00
O22    O     0.61250   0.24470   0.90390   0.01267  Uiso   1.00
O23    O     0.92020   0.39120   0.82620   0.01267  Uiso   1.00
O24    O     0.94680   0.47500   0.90300   0.01267  Uiso   1.00
O25    O     0.57860   0.38360   0.43880   0.01267  Uiso   1.00
O26    O     0.74260   0.23840   0.41540   0.01267  Uiso   1.00
O27    O     0.42550   0.41410   0.60730   0.01267  Uiso   1.00
O28    O     0.43200   0.31590   0.75090   0.01267  Uiso   1.00
O29    O     0.86670   0.51910   0.53430   0.01267  Uiso   1.00
O30    O     0.81110   0.38720   0.64120   0.01267  Uiso   1.00
O31    O     0.56490   0.09370   0.39070   0.01267  Uiso   1.00
O32    O     0.61760   0.13080   0.23460   0.01267  Uiso   1.00
O33    O     0.65020   0.88490   0.46990   0.01267  Uiso   1.00
O34    O     0.73890   0.74470   0.40390   0.01267  Uiso   1.00
O35    O     0.36240   0.89120   0.32620   0.01267  Uiso   1.00
O36    O     0.17520   0.97500   0.40300   0.01267  Uiso   1.00
O37    O     0.90100   0.11640   0.06120   0.01267  Uiso   1.00
O38    O     0.89640   0.26160   0.08460   0.01267  Uiso   1.00
O39    O     0.94690   0.08590   0.89270   0.01267  Uiso   1.00
O40    O     0.99880   0.18410   0.74910   0.01267  Uiso   1.00
O41    O     0.42010   0.98090   0.96570   0.01267  Uiso   1.00
O42    O     0.33950   0.11280   0.85880   0.01267  Uiso   1.00
O43    O     0.54930   0.40630   0.10930   0.01267  Uiso   1.00
O44    O     0.48300   0.36920   0.26540   0.01267  Uiso   1.00
O45    O     0.50500   0.61510   0.03010   0.01267  Uiso   1.00
O46    O     0.38750   0.75530   0.09610   0.01267  Uiso   1.00
O47    O     0.07980   0.60880   0.17380   0.01267  Uiso   1.00
O48    O     0.05320   0.52500   0.09700   0.01267  Uiso   1.00
