data_SUKPAQ_charged
_audit_creation_date              2014-07-02
_audit_creation_method            'Materials Studio'
_symmetry_space_group_name_H-M    'P1'
_symmetry_Int_Tables_number       1
_symmetry_cell_setting            triclinic
loop_
_symmetry_equiv_pos_as_xyz
  x,y,z
_cell_length_a                    20.3700
_cell_length_b                    22.5982
_cell_length_c                    22.5982
_cell_angle_alpha                 120.0000
_cell_angle_beta                  90.0000
_cell_angle_gamma                 90.0000
loop_
_atom_site_label
_atom_site_type_symbol
_atom_site_fract_x
_atom_site_fract_y
_atom_site_fract_z
_atom_site_U_iso_or_equiv
_atom_site_adp_type
_atom_site_occupancy
Cs1    Cs    0.25000   0.66667   0.33334   0.01267  Uiso   1.00
Cs2    Cs    0.75000   0.33333   0.66666   0.01267  Uiso   1.00
Cd1    Cd    0.25000   0.45618   0.22809   0.01267  Uiso   1.00
Cd2    Cd    0.25000   0.77191   0.54382   0.01267  Uiso   1.00
Cd3    Cd    0.25000   0.77191   0.22809   0.01267  Uiso   1.00
Cd4    Cd    0.75000   0.54382   0.77191   0.01267  Uiso   1.00
Cd5    Cd    0.75000   0.22809   0.45618   0.01267  Uiso   1.00
Cd6    Cd    0.75000   0.22809   0.77191   0.01267  Uiso   1.00
H1     H     0.25680   0.29910   0.17840   0.01267  Uiso   1.00
H2     H     0.59190   0.60340   0.51120   0.01267  Uiso   1.00
H3     H     0.57380   0.67220   0.51850   0.01267  Uiso   1.00
H4     H     0.44880   0.45150   0.35510   0.01267  Uiso   1.00
H5     H     0.48020   0.68460   0.45780   0.01267  Uiso   1.00
H6     H     0.39220   0.63430   0.38780   0.01267  Uiso   1.00
H7     H     0.50670   0.40590   0.39070   0.01267  Uiso   1.00
H8     H     0.61940   0.22620   0.38230   0.01267  Uiso   1.00
H9     H     0.54830   0.29760   0.36490   0.01267  Uiso   1.00
H10    H     0.65730   0.46110   0.48830   0.01267  Uiso   1.00
H11    H     0.72520   0.38870   0.50500   0.01267  Uiso   1.00
H12    H     0.25680   0.87930   0.70090   0.01267  Uiso   1.00
H13    H     0.59190   0.90780   0.39660   0.01267  Uiso   1.00
H14    H     0.57380   0.84630   0.32780   0.01267  Uiso   1.00
H15    H     0.44880   0.90360   0.54850   0.01267  Uiso   1.00
H16    H     0.48020   0.77320   0.31540   0.01267  Uiso   1.00
H17    H     0.39220   0.75350   0.36570   0.01267  Uiso   1.00
H18    H     0.50670   0.98480   0.59410   0.01267  Uiso   1.00
H19    H     0.61940   0.15610   0.77380   0.01267  Uiso   1.00
H20    H     0.54830   0.06730   0.70240   0.01267  Uiso   1.00
H21    H     0.65730   0.02720   0.53890   0.01267  Uiso   1.00
H22    H     0.72520   0.11630   0.61130   0.01267  Uiso   1.00
H23    H     0.25680   0.82160   0.12070   0.01267  Uiso   1.00
H24    H     0.59190   0.48880   0.09220   0.01267  Uiso   1.00
H25    H     0.57380   0.48150   0.15370   0.01267  Uiso   1.00
H26    H     0.44880   0.64490   0.09640   0.01267  Uiso   1.00
H27    H     0.48020   0.54220   0.22680   0.01267  Uiso   1.00
H28    H     0.39220   0.61220   0.24650   0.01267  Uiso   1.00
H29    H     0.50670   0.60930   0.01520   0.01267  Uiso   1.00
H30    H     0.61940   0.61770   0.84390   0.01267  Uiso   1.00
H31    H     0.54830   0.63510   0.93270   0.01267  Uiso   1.00
H32    H     0.65730   0.51170   0.97280   0.01267  Uiso   1.00
H33    H     0.72520   0.49500   0.88370   0.01267  Uiso   1.00
H34    H     0.24320   0.87930   0.17840   0.01267  Uiso   1.00
H35    H     0.90810   0.90780   0.51120   0.01267  Uiso   1.00
H36    H     0.92620   0.84630   0.51850   0.01267  Uiso   1.00
H37    H     0.05120   0.90360   0.35510   0.01267  Uiso   1.00
H38    H     0.01980   0.77320   0.45780   0.01267  Uiso   1.00
H39    H     0.10780   0.75350   0.38780   0.01267  Uiso   1.00
H40    H     0.99330   0.98480   0.39070   0.01267  Uiso   1.00
H41    H     0.88060   0.15610   0.38230   0.01267  Uiso   1.00
H42    H     0.95170   0.06730   0.36490   0.01267  Uiso   1.00
H43    H     0.84270   0.02720   0.48830   0.01267  Uiso   1.00
H44    H     0.77480   0.11630   0.50500   0.01267  Uiso   1.00
H45    H     0.24320   0.82160   0.70090   0.01267  Uiso   1.00
H46    H     0.90810   0.48880   0.39660   0.01267  Uiso   1.00
H47    H     0.92620   0.48150   0.32780   0.01267  Uiso   1.00
H48    H     0.05120   0.64490   0.54850   0.01267  Uiso   1.00
H49    H     0.01980   0.54220   0.31540   0.01267  Uiso   1.00
H50    H     0.10780   0.61220   0.36570   0.01267  Uiso   1.00
H51    H     0.99330   0.60930   0.59410   0.01267  Uiso   1.00
H52    H     0.88060   0.61770   0.77380   0.01267  Uiso   1.00
H53    H     0.95170   0.63510   0.70240   0.01267  Uiso   1.00
H54    H     0.84270   0.51170   0.53890   0.01267  Uiso   1.00
H55    H     0.77480   0.49500   0.61130   0.01267  Uiso   1.00
H56    H     0.24320   0.29910   0.12070   0.01267  Uiso   1.00
H57    H     0.90810   0.60340   0.09220   0.01267  Uiso   1.00
H58    H     0.92620   0.67220   0.15370   0.01267  Uiso   1.00
H59    H     0.05120   0.45150   0.09640   0.01267  Uiso   1.00
H60    H     0.01980   0.68460   0.22680   0.01267  Uiso   1.00
H61    H     0.10780   0.63430   0.24650   0.01267  Uiso   1.00
H62    H     0.99330   0.40590   0.01520   0.01267  Uiso   1.00
H63    H     0.88060   0.22620   0.84390   0.01267  Uiso   1.00
H64    H     0.95170   0.29760   0.93270   0.01267  Uiso   1.00
H65    H     0.84270   0.46110   0.97280   0.01267  Uiso   1.00
H66    H     0.77480   0.38870   0.88370   0.01267  Uiso   1.00
H67    H     0.74320   0.70090   0.82160   0.01267  Uiso   1.00
H68    H     0.40810   0.39660   0.48880   0.01267  Uiso   1.00
H69    H     0.42620   0.32780   0.48150   0.01267  Uiso   1.00
H70    H     0.55120   0.54850   0.64490   0.01267  Uiso   1.00
H71    H     0.51980   0.31540   0.54220   0.01267  Uiso   1.00
H72    H     0.60780   0.36570   0.61220   0.01267  Uiso   1.00
H73    H     0.49330   0.59410   0.60930   0.01267  Uiso   1.00
H74    H     0.38060   0.77380   0.61770   0.01267  Uiso   1.00
H75    H     0.45170   0.70240   0.63510   0.01267  Uiso   1.00
H76    H     0.34270   0.53890   0.51170   0.01267  Uiso   1.00
H77    H     0.27480   0.61130   0.49500   0.01267  Uiso   1.00
H78    H     0.74320   0.12070   0.29910   0.01267  Uiso   1.00
H79    H     0.40810   0.09220   0.60340   0.01267  Uiso   1.00
H80    H     0.42620   0.15370   0.67220   0.01267  Uiso   1.00
H81    H     0.55120   0.09640   0.45150   0.01267  Uiso   1.00
H82    H     0.51980   0.22680   0.68460   0.01267  Uiso   1.00
H83    H     0.60780   0.24650   0.63430   0.01267  Uiso   1.00
H84    H     0.49330   0.01520   0.40590   0.01267  Uiso   1.00
H85    H     0.38060   0.84390   0.22620   0.01267  Uiso   1.00
H86    H     0.45170   0.93270   0.29760   0.01267  Uiso   1.00
H87    H     0.34270   0.97280   0.46110   0.01267  Uiso   1.00
H88    H     0.27480   0.88370   0.38870   0.01267  Uiso   1.00
H89    H     0.74320   0.17840   0.87930   0.01267  Uiso   1.00
H90    H     0.40810   0.51120   0.90780   0.01267  Uiso   1.00
H91    H     0.42620   0.51850   0.84630   0.01267  Uiso   1.00
H92    H     0.55120   0.35510   0.90360   0.01267  Uiso   1.00
H93    H     0.51980   0.45780   0.77320   0.01267  Uiso   1.00
H94    H     0.60780   0.38780   0.75350   0.01267  Uiso   1.00
H95    H     0.49330   0.39070   0.98480   0.01267  Uiso   1.00
H96    H     0.38060   0.38230   0.15610   0.01267  Uiso   1.00
H97    H     0.45170   0.36490   0.06730   0.01267  Uiso   1.00
H98    H     0.34270   0.48830   0.02720   0.01267  Uiso   1.00
H99    H     0.27480   0.50500   0.11630   0.01267  Uiso   1.00
H100   H     0.75680   0.12070   0.82160   0.01267  Uiso   1.00
H101   H     0.09190   0.09220   0.48880   0.01267  Uiso   1.00
H102   H     0.07380   0.15370   0.48150   0.01267  Uiso   1.00
H103   H     0.94880   0.09640   0.64490   0.01267  Uiso   1.00
H104   H     0.98020   0.22680   0.54220   0.01267  Uiso   1.00
H105   H     0.89220   0.24650   0.61220   0.01267  Uiso   1.00
H106   H     0.00670   0.01520   0.60930   0.01267  Uiso   1.00
H107   H     0.11940   0.84390   0.61770   0.01267  Uiso   1.00
H108   H     0.04830   0.93270   0.63510   0.01267  Uiso   1.00
H109   H     0.15730   0.97280   0.51170   0.01267  Uiso   1.00
H110   H     0.22520   0.88370   0.49500   0.01267  Uiso   1.00
H111   H     0.75680   0.17840   0.29910   0.01267  Uiso   1.00
H112   H     0.09190   0.51120   0.60340   0.01267  Uiso   1.00
H113   H     0.07380   0.51850   0.67220   0.01267  Uiso   1.00
H114   H     0.94880   0.35510   0.45150   0.01267  Uiso   1.00
H115   H     0.98020   0.45780   0.68460   0.01267  Uiso   1.00
H116   H     0.89220   0.38780   0.63430   0.01267  Uiso   1.00
H117   H     0.00670   0.39070   0.40590   0.01267  Uiso   1.00
H118   H     0.11940   0.38230   0.22620   0.01267  Uiso   1.00
H119   H     0.04830   0.36490   0.29760   0.01267  Uiso   1.00
H120   H     0.15730   0.48830   0.46110   0.01267  Uiso   1.00
H121   H     0.22520   0.50500   0.38870   0.01267  Uiso   1.00
H122   H     0.75680   0.70090   0.87930   0.01267  Uiso   1.00
H123   H     0.09190   0.39660   0.90780   0.01267  Uiso   1.00
H124   H     0.07380   0.32780   0.84630   0.01267  Uiso   1.00
H125   H     0.94880   0.54850   0.90360   0.01267  Uiso   1.00
H126   H     0.98020   0.31540   0.77320   0.01267  Uiso   1.00
H127   H     0.89220   0.36570   0.75350   0.01267  Uiso   1.00
H128   H     0.00670   0.59410   0.98480   0.01267  Uiso   1.00
H129   H     0.11940   0.77380   0.15610   0.01267  Uiso   1.00
H130   H     0.04830   0.70240   0.06730   0.01267  Uiso   1.00
H131   H     0.15730   0.53890   0.02720   0.01267  Uiso   1.00
H132   H     0.22520   0.61130   0.11630   0.01267  Uiso   1.00
C1     C     0.35520   0.50580   0.31850   0.01267  Uiso   1.00
C2     C     0.41160   0.53760   0.36350   0.01267  Uiso   1.00
C3     C     0.45540   0.49950   0.37700   0.01267  Uiso   1.00
C4     C     0.50700   0.52620   0.41920   0.01267  Uiso   1.00
C5     C     0.51840   0.59660   0.45060   0.01267  Uiso   1.00
C6     C     0.47380   0.63670   0.43730   0.01267  Uiso   1.00
C7     C     0.42220   0.60660   0.39540   0.01267  Uiso   1.00
C8     C     0.54610   0.42720   0.41430   0.01267  Uiso   1.00
C9     C     0.62700   0.27410   0.40400   0.01267  Uiso   1.00
C10    C     0.58460   0.31730   0.39480   0.01267  Uiso   1.00
C11    C     0.59280   0.38720   0.42700   0.01267  Uiso   1.00
C12    C     0.64770   0.41370   0.46700   0.01267  Uiso   1.00
C13    C     0.68860   0.36950   0.47550   0.01267  Uiso   1.00
C14    C     0.35520   0.81270   0.49420   0.01267  Uiso   1.00
C15    C     0.41160   0.82590   0.46240   0.01267  Uiso   1.00
C16    C     0.45540   0.87750   0.50050   0.01267  Uiso   1.00
C17    C     0.50700   0.89300   0.47380   0.01267  Uiso   1.00
C18    C     0.51840   0.85400   0.40340   0.01267  Uiso   1.00
C19    C     0.47380   0.80060   0.36330   0.01267  Uiso   1.00
C20    C     0.42220   0.78880   0.39340   0.01267  Uiso   1.00
C21    C     0.54610   0.98710   0.57280   0.01267  Uiso   1.00
C22    C     0.62700   0.12990   0.72590   0.01267  Uiso   1.00
C23    C     0.58460   0.07750   0.68270   0.01267  Uiso   1.00
C24    C     0.59280   0.03980   0.61280   0.01267  Uiso   1.00
C25    C     0.64770   0.05330   0.58630   0.01267  Uiso   1.00
C26    C     0.68860   0.10600   0.63050   0.01267  Uiso   1.00
C27    C     0.35520   0.68150   0.18730   0.01267  Uiso   1.00
C28    C     0.41160   0.63650   0.17410   0.01267  Uiso   1.00
C29    C     0.45540   0.62300   0.12250   0.01267  Uiso   1.00
C30    C     0.50700   0.58080   0.10700   0.01267  Uiso   1.00
C31    C     0.51840   0.54940   0.14600   0.01267  Uiso   1.00
C32    C     0.47380   0.56270   0.19940   0.01267  Uiso   1.00
C33    C     0.42220   0.60460   0.21120   0.01267  Uiso   1.00
C34    C     0.54610   0.58570   0.01290   0.01267  Uiso   1.00
C35    C     0.62700   0.59600   0.87010   0.01267  Uiso   1.00
C36    C     0.58460   0.60520   0.92250   0.01267  Uiso   1.00
C37    C     0.59280   0.57300   0.96020   0.01267  Uiso   1.00
C38    C     0.64770   0.53300   0.94670   0.01267  Uiso   1.00
C39    C     0.68860   0.52450   0.89400   0.01267  Uiso   1.00
C40    C     0.14480   0.81270   0.31850   0.01267  Uiso   1.00
C41    C     0.08840   0.82590   0.36350   0.01267  Uiso   1.00
C42    C     0.04460   0.87750   0.37700   0.01267  Uiso   1.00
C43    C     0.99300   0.89300   0.41920   0.01267  Uiso   1.00
C44    C     0.98160   0.85400   0.45060   0.01267  Uiso   1.00
C45    C     0.02620   0.80060   0.43730   0.01267  Uiso   1.00
C46    C     0.07780   0.78880   0.39540   0.01267  Uiso   1.00
C47    C     0.95390   0.98710   0.41430   0.01267  Uiso   1.00
C48    C     0.87300   0.12990   0.40400   0.01267  Uiso   1.00
C49    C     0.91540   0.07750   0.39480   0.01267  Uiso   1.00
C50    C     0.90720   0.03980   0.42700   0.01267  Uiso   1.00
C51    C     0.85230   0.05330   0.46700   0.01267  Uiso   1.00
C52    C     0.81140   0.10600   0.47550   0.01267  Uiso   1.00
C53    C     0.14480   0.68150   0.49420   0.01267  Uiso   1.00
C54    C     0.08840   0.63650   0.46240   0.01267  Uiso   1.00
C55    C     0.04460   0.62300   0.50050   0.01267  Uiso   1.00
C56    C     0.99300   0.58080   0.47380   0.01267  Uiso   1.00
C57    C     0.98160   0.54940   0.40340   0.01267  Uiso   1.00
C58    C     0.02620   0.56270   0.36330   0.01267  Uiso   1.00
C59    C     0.07780   0.60460   0.39340   0.01267  Uiso   1.00
C60    C     0.95390   0.58570   0.57280   0.01267  Uiso   1.00
C61    C     0.87300   0.59600   0.72590   0.01267  Uiso   1.00
C62    C     0.91540   0.60520   0.68270   0.01267  Uiso   1.00
C63    C     0.90720   0.57300   0.61280   0.01267  Uiso   1.00
C64    C     0.85230   0.53300   0.58630   0.01267  Uiso   1.00
C65    C     0.81140   0.52450   0.63050   0.01267  Uiso   1.00
C66    C     0.14480   0.50580   0.18730   0.01267  Uiso   1.00
C67    C     0.08840   0.53760   0.17410   0.01267  Uiso   1.00
C68    C     0.04460   0.49950   0.12250   0.01267  Uiso   1.00
C69    C     0.99300   0.52620   0.10700   0.01267  Uiso   1.00
C70    C     0.98160   0.59660   0.14600   0.01267  Uiso   1.00
C71    C     0.02620   0.63670   0.19940   0.01267  Uiso   1.00
C72    C     0.07780   0.60660   0.21120   0.01267  Uiso   1.00
C73    C     0.95390   0.42720   0.01290   0.01267  Uiso   1.00
C74    C     0.87300   0.27410   0.87010   0.01267  Uiso   1.00
C75    C     0.91540   0.31730   0.92250   0.01267  Uiso   1.00
C76    C     0.90720   0.38720   0.96020   0.01267  Uiso   1.00
C77    C     0.85230   0.41370   0.94670   0.01267  Uiso   1.00
C78    C     0.81140   0.36950   0.89400   0.01267  Uiso   1.00
C79    C     0.64480   0.49420   0.68150   0.01267  Uiso   1.00
C80    C     0.58840   0.46240   0.63650   0.01267  Uiso   1.00
C81    C     0.54460   0.50050   0.62300   0.01267  Uiso   1.00
C82    C     0.49300   0.47380   0.58080   0.01267  Uiso   1.00
C83    C     0.48160   0.40340   0.54940   0.01267  Uiso   1.00
C84    C     0.52620   0.36330   0.56270   0.01267  Uiso   1.00
C85    C     0.57780   0.39340   0.60460   0.01267  Uiso   1.00
C86    C     0.45390   0.57280   0.58570   0.01267  Uiso   1.00
C87    C     0.37300   0.72590   0.59600   0.01267  Uiso   1.00
C88    C     0.41540   0.68270   0.60520   0.01267  Uiso   1.00
C89    C     0.40720   0.61280   0.57300   0.01267  Uiso   1.00
C90    C     0.35230   0.58630   0.53300   0.01267  Uiso   1.00
C91    C     0.31140   0.63050   0.52450   0.01267  Uiso   1.00
C92    C     0.64480   0.18730   0.50580   0.01267  Uiso   1.00
C93    C     0.58840   0.17410   0.53760   0.01267  Uiso   1.00
C94    C     0.54460   0.12250   0.49950   0.01267  Uiso   1.00
C95    C     0.49300   0.10700   0.52620   0.01267  Uiso   1.00
C96    C     0.48160   0.14600   0.59660   0.01267  Uiso   1.00
C97    C     0.52620   0.19940   0.63670   0.01267  Uiso   1.00
C98    C     0.57780   0.21120   0.60660   0.01267  Uiso   1.00
C99    C     0.45390   0.01290   0.42720   0.01267  Uiso   1.00
C100   C     0.37300   0.87010   0.27410   0.01267  Uiso   1.00
C101   C     0.41540   0.92250   0.31730   0.01267  Uiso   1.00
C102   C     0.40720   0.96020   0.38720   0.01267  Uiso   1.00
C103   C     0.35230   0.94670   0.41370   0.01267  Uiso   1.00
C104   C     0.31140   0.89400   0.36950   0.01267  Uiso   1.00
C105   C     0.64480   0.31850   0.81270   0.01267  Uiso   1.00
C106   C     0.58840   0.36350   0.82590   0.01267  Uiso   1.00
C107   C     0.54460   0.37700   0.87750   0.01267  Uiso   1.00
C108   C     0.49300   0.41920   0.89300   0.01267  Uiso   1.00
C109   C     0.48160   0.45060   0.85400   0.01267  Uiso   1.00
C110   C     0.52620   0.43730   0.80060   0.01267  Uiso   1.00
C111   C     0.57780   0.39540   0.78880   0.01267  Uiso   1.00
C112   C     0.45390   0.41430   0.98710   0.01267  Uiso   1.00
C113   C     0.37300   0.40400   0.12990   0.01267  Uiso   1.00
C114   C     0.41540   0.39480   0.07750   0.01267  Uiso   1.00
C115   C     0.40720   0.42700   0.03980   0.01267  Uiso   1.00
C116   C     0.35230   0.46700   0.05330   0.01267  Uiso   1.00
C117   C     0.31140   0.47550   0.10600   0.01267  Uiso   1.00
C118   C     0.85520   0.18730   0.68150   0.01267  Uiso   1.00
C119   C     0.91160   0.17410   0.63650   0.01267  Uiso   1.00
C120   C     0.95540   0.12250   0.62300   0.01267  Uiso   1.00
C121   C     0.00700   0.10700   0.58080   0.01267  Uiso   1.00
C122   C     0.01840   0.14600   0.54940   0.01267  Uiso   1.00
C123   C     0.97380   0.19940   0.56270   0.01267  Uiso   1.00
C124   C     0.92220   0.21120   0.60460   0.01267  Uiso   1.00
C125   C     0.04610   0.01290   0.58570   0.01267  Uiso   1.00
C126   C     0.12700   0.87010   0.59600   0.01267  Uiso   1.00
C127   C     0.08460   0.92250   0.60520   0.01267  Uiso   1.00
C128   C     0.09280   0.96020   0.57300   0.01267  Uiso   1.00
C129   C     0.14770   0.94670   0.53300   0.01267  Uiso   1.00
C130   C     0.18860   0.89400   0.52450   0.01267  Uiso   1.00
C131   C     0.85520   0.31850   0.50580   0.01267  Uiso   1.00
C132   C     0.91160   0.36350   0.53760   0.01267  Uiso   1.00
C133   C     0.95540   0.37700   0.49950   0.01267  Uiso   1.00
C134   C     0.00700   0.41920   0.52620   0.01267  Uiso   1.00
C135   C     0.01840   0.45060   0.59660   0.01267  Uiso   1.00
C136   C     0.97380   0.43730   0.63670   0.01267  Uiso   1.00
C137   C     0.92220   0.39540   0.60660   0.01267  Uiso   1.00
C138   C     0.04610   0.41430   0.42720   0.01267  Uiso   1.00
C139   C     0.12700   0.40400   0.27410   0.01267  Uiso   1.00
C140   C     0.08460   0.39480   0.31730   0.01267  Uiso   1.00
C141   C     0.09280   0.42700   0.38720   0.01267  Uiso   1.00
C142   C     0.14770   0.46700   0.41370   0.01267  Uiso   1.00
C143   C     0.18860   0.47550   0.36950   0.01267  Uiso   1.00
C144   C     0.85520   0.49420   0.81270   0.01267  Uiso   1.00
C145   C     0.91160   0.46240   0.82590   0.01267  Uiso   1.00
C146   C     0.95540   0.50050   0.87750   0.01267  Uiso   1.00
C147   C     0.00700   0.47380   0.89300   0.01267  Uiso   1.00
C148   C     0.01840   0.40340   0.85400   0.01267  Uiso   1.00
C149   C     0.97380   0.36330   0.80060   0.01267  Uiso   1.00
C150   C     0.92220   0.39340   0.78880   0.01267  Uiso   1.00
C151   C     0.04610   0.57280   0.98710   0.01267  Uiso   1.00
C152   C     0.12700   0.72590   0.12990   0.01267  Uiso   1.00
C153   C     0.08460   0.68270   0.07750   0.01267  Uiso   1.00
C154   C     0.09280   0.61280   0.03980   0.01267  Uiso   1.00
C155   C     0.14770   0.58630   0.05330   0.01267  Uiso   1.00
C156   C     0.18860   0.63050   0.10600   0.01267  Uiso   1.00
N1     N     0.55490   0.48890   0.43290   0.01267  Uiso   1.00
N2     N     0.68030   0.30390   0.44600   0.01267  Uiso   1.00
N3     N     0.56740   0.62790   0.49940   0.01267  Uiso   1.00
N4     N     0.55490   0.94400   0.51110   0.01267  Uiso   1.00
N5     N     0.68030   0.14210   0.69610   0.01267  Uiso   1.00
N6     N     0.56740   0.87150   0.37210   0.01267  Uiso   1.00
N7     N     0.55490   0.56710   0.05600   0.01267  Uiso   1.00
N8     N     0.68030   0.55400   0.85790   0.01267  Uiso   1.00
N9     N     0.56740   0.50060   0.12850   0.01267  Uiso   1.00
N10    N     0.94510   0.94400   0.43290   0.01267  Uiso   1.00
N11    N     0.81970   0.14210   0.44600   0.01267  Uiso   1.00
N12    N     0.93260   0.87150   0.49940   0.01267  Uiso   1.00
N13    N     0.94510   0.56710   0.51110   0.01267  Uiso   1.00
N14    N     0.81970   0.55400   0.69610   0.01267  Uiso   1.00
N15    N     0.93260   0.50060   0.37210   0.01267  Uiso   1.00
N16    N     0.94510   0.48890   0.05600   0.01267  Uiso   1.00
N17    N     0.81970   0.30390   0.85790   0.01267  Uiso   1.00
N18    N     0.93260   0.62790   0.12850   0.01267  Uiso   1.00
N19    N     0.44510   0.51110   0.56710   0.01267  Uiso   1.00
N20    N     0.31970   0.69610   0.55400   0.01267  Uiso   1.00
N21    N     0.43260   0.37210   0.50060   0.01267  Uiso   1.00
N22    N     0.44510   0.05600   0.48890   0.01267  Uiso   1.00
N23    N     0.31970   0.85790   0.30390   0.01267  Uiso   1.00
N24    N     0.43260   0.12850   0.62790   0.01267  Uiso   1.00
N25    N     0.44510   0.43290   0.94400   0.01267  Uiso   1.00
N26    N     0.31970   0.44600   0.14210   0.01267  Uiso   1.00
N27    N     0.43260   0.49940   0.87150   0.01267  Uiso   1.00
N28    N     0.05490   0.05600   0.56710   0.01267  Uiso   1.00
N29    N     0.18030   0.85790   0.55400   0.01267  Uiso   1.00
N30    N     0.06740   0.12850   0.50060   0.01267  Uiso   1.00
N31    N     0.05490   0.43290   0.48890   0.01267  Uiso   1.00
N32    N     0.18030   0.44600   0.30390   0.01267  Uiso   1.00
N33    N     0.06740   0.49940   0.62790   0.01267  Uiso   1.00
N34    N     0.05490   0.51110   0.94400   0.01267  Uiso   1.00
N35    N     0.18030   0.69610   0.14210   0.01267  Uiso   1.00
N36    N     0.06740   0.37210   0.87150   0.01267  Uiso   1.00
O1     O     0.31560   0.54550   0.31130   0.01267  Uiso   1.00
O2     O     0.34670   0.44360   0.28780   0.01267  Uiso   1.00
O3     O     0.31560   0.76580   0.45450   0.01267  Uiso   1.00
O4     O     0.34670   0.84420   0.55640   0.01267  Uiso   1.00
O5     O     0.31560   0.68870   0.23420   0.01267  Uiso   1.00
O6     O     0.34670   0.71220   0.15580   0.01267  Uiso   1.00
O7     O     0.18440   0.76580   0.31130   0.01267  Uiso   1.00
O8     O     0.15330   0.84420   0.28780   0.01267  Uiso   1.00
O9     O     0.18440   0.68870   0.45450   0.01267  Uiso   1.00
O10    O     0.15330   0.71220   0.55640   0.01267  Uiso   1.00
O11    O     0.18440   0.54550   0.23420   0.01267  Uiso   1.00
O12    O     0.15330   0.44360   0.15580   0.01267  Uiso   1.00
O13    O     0.68440   0.45450   0.68870   0.01267  Uiso   1.00
O14    O     0.65330   0.55640   0.71220   0.01267  Uiso   1.00
O15    O     0.68440   0.23420   0.54550   0.01267  Uiso   1.00
O16    O     0.65330   0.15580   0.44360   0.01267  Uiso   1.00
O17    O     0.68440   0.31130   0.76580   0.01267  Uiso   1.00
O18    O     0.65330   0.28780   0.84420   0.01267  Uiso   1.00
O19    O     0.81560   0.23420   0.68870   0.01267  Uiso   1.00
O20    O     0.84670   0.15580   0.71220   0.01267  Uiso   1.00
O21    O     0.81560   0.31130   0.54550   0.01267  Uiso   1.00
O22    O     0.84670   0.28780   0.44360   0.01267  Uiso   1.00
O23    O     0.81560   0.45450   0.76580   0.01267  Uiso   1.00
O24    O     0.84670   0.55640   0.84420   0.01267  Uiso   1.00
O25    O     0.25000   0.33380   0.16690   0.01267  Uiso   1.00
O26    O     0.25000   0.83310   0.66620   0.01267  Uiso   1.00
O27    O     0.25000   0.83310   0.16690   0.01267  Uiso   1.00
O28    O     0.75000   0.66620   0.83310   0.01267  Uiso   1.00
O29    O     0.75000   0.16690   0.33380   0.01267  Uiso   1.00
O30    O     0.75000   0.16690   0.83310   0.01267  Uiso   1.00
