data_SUSZOW_clean
_audit_creation_date              2014-07-02
_audit_creation_method            'Materials Studio'
_symmetry_space_group_name_H-M    'P1'
_symmetry_Int_Tables_number       1
_symmetry_cell_setting            triclinic
loop_
_symmetry_equiv_pos_as_xyz
  x,y,z
_cell_length_a                    8.3487
_cell_length_b                    14.8022
_cell_length_c                    16.0917
_cell_angle_alpha                 117.3830
_cell_angle_beta                  105.0350
_cell_angle_gamma                 90.0002
loop_
_atom_site_label
_atom_site_type_symbol
_atom_site_fract_x
_atom_site_fract_y
_atom_site_fract_z
_atom_site_U_iso_or_equiv
_atom_site_adp_type
_atom_site_occupancy
Al1    Al    0.51046   0.68506   0.55732   0.01267  Uiso   1.00
Al2    Al    0.41355   0.77429   0.34910   0.01267  Uiso   1.00
Al3    Al    0.67973   0.85134   0.88906   0.01267  Uiso   1.00
Al4    Al    0.60158   0.09097   0.72956   0.01267  Uiso   1.00
Al5    Al    0.95314   0.31494   0.44268   0.01267  Uiso   1.00
Al6    Al    0.06445   0.22571   0.65090   0.01267  Uiso   1.00
Al7    Al    0.79067   0.14866   0.11094   0.01267  Uiso   1.00
Al8    Al    0.87202   0.90903   0.27044   0.01267  Uiso   1.00
Al9    Al    0.45314   0.12774   0.44268   0.01267  Uiso   1.00
Al10   Al    0.56445   0.42519   0.65090   0.01267  Uiso   1.00
Al11   Al    0.29067   0.96228   0.11094   0.01267  Uiso   1.00
Al12   Al    0.37202   0.36141   0.27044   0.01267  Uiso   1.00
Al13   Al    0.01046   0.87226   0.55732   0.01267  Uiso   1.00
Al14   Al    0.91355   0.57481   0.34910   0.01267  Uiso   1.00
Al15   Al    0.17973   0.03772   0.88906   0.01267  Uiso   1.00
Al16   Al    0.10158   0.63859   0.72956   0.01267  Uiso   1.00
P1     P     0.63964   0.87999   0.56408   0.01267  Uiso   1.00
P2     P     0.53195   0.57568   0.34130   0.01267  Uiso   1.00
P3     P     0.72278   0.64053   0.72096   0.01267  Uiso   1.00
P4     P     0.80435   0.04826   0.89430   0.01267  Uiso   1.00
P5     P     0.07556   0.12001   0.43592   0.01267  Uiso   1.00
P6     P     0.19065   0.42432   0.65870   0.01267  Uiso   1.00
P7     P     0.00182   0.35947   0.27904   0.01267  Uiso   1.00
P8     P     0.91005   0.95174   0.10570   0.01267  Uiso   1.00
P9     P     0.57556   0.31591   0.43592   0.01267  Uiso   1.00
P10    P     0.69065   0.23438   0.65870   0.01267  Uiso   1.00
P11    P     0.50182   0.91957   0.27904   0.01267  Uiso   1.00
P12    P     0.41005   0.15396   0.10570   0.01267  Uiso   1.00
P13    P     0.13964   0.68409   0.56408   0.01267  Uiso   1.00
P14    P     0.03195   0.76562   0.34130   0.01267  Uiso   1.00
P15    P     0.22278   0.08043   0.72096   0.01267  Uiso   1.00
P16    P     0.30435   0.84604   0.89430   0.01267  Uiso   1.00
O1     O     0.51300   0.85460   0.46820   0.01267  Uiso   1.00
O2     O     0.59825   0.80995   0.60390   0.01267  Uiso   1.00
O3     O     0.65180   0.99070   0.63760   0.01267  Uiso   1.00
O4     O     0.80427   0.86347   0.54434   0.01267  Uiso   1.00
O5     O     0.53138   0.61008   0.44396   0.01267  Uiso   1.00
O6     O     0.42464   0.47279   0.26928   0.01267  Uiso   1.00
O7     O     0.70728   0.56648   0.33796   0.01267  Uiso   1.00
O8     O     0.46956   0.65376   0.30852   0.01267  Uiso   1.00
O9     O     0.67593   0.54522   0.72766   0.01267  Uiso   1.00
O10    O     0.60446   0.63596   0.63092   0.01267  Uiso   1.00
O11    O     0.89451   0.64041   0.71062   0.01267  Uiso   1.00
O12    O     0.71303   0.73153   0.81266   0.01267  Uiso   1.00
O13    O     0.71738   0.93798   0.84996   0.01267  Uiso   1.00
O14    O     0.80684   0.11294   0.99828   0.01267  Uiso   1.00
O15    O     0.71079   0.10089   0.83878   0.01267  Uiso   1.00
O16    O     0.97958   0.04638   0.89056   0.01267  Uiso   1.00
O17    O     0.04480   0.14540   0.53180   0.01267  Uiso   1.00
O18    O     0.99435   0.19005   0.39610   0.01267  Uiso   1.00
O19    O     0.01420   0.00930   0.36240   0.01267  Uiso   1.00
O20    O     0.25993   0.13653   0.45566   0.01267  Uiso   1.00
O21    O     0.08742   0.38992   0.55604   0.01267  Uiso   1.00
O22    O     0.15536   0.52721   0.73072   0.01267  Uiso   1.00
O23    O     0.36932   0.43352   0.66204   0.01267  Uiso   1.00
O24    O     0.16104   0.34624   0.69148   0.01267  Uiso   1.00
O25    O     0.94827   0.45478   0.27234   0.01267  Uiso   1.00
O26    O     0.97354   0.36404   0.36908   0.01267  Uiso   1.00
O27    O     0.18389   0.35959   0.28938   0.01267  Uiso   1.00
O28    O     0.90037   0.26847   0.18734   0.01267  Uiso   1.00
O29    O     0.86742   0.06202   0.15004   0.01267  Uiso   1.00
O30    O     0.80856   0.88706   0.00172   0.01267  Uiso   1.00
O31    O     0.87201   0.89911   0.16122   0.01267  Uiso   1.00
O32    O     0.08902   0.95362   0.10944   0.01267  Uiso   1.00
O33    O     0.54480   0.38640   0.53180   0.01267  Uiso   1.00
O34    O     0.49435   0.20605   0.39610   0.01267  Uiso   1.00
O35    O     0.51420   0.35310   0.36240   0.01267  Uiso   1.00
O36    O     0.75993   0.31913   0.45566   0.01267  Uiso   1.00
O37    O     0.58742   0.16612   0.55604   0.01267  Uiso   1.00
O38    O     0.65536   0.20351   0.73072   0.01267  Uiso   1.00
O39    O     0.86932   0.22852   0.66204   0.01267  Uiso   1.00
O40    O     0.66104   0.34524   0.69148   0.01267  Uiso   1.00
O41    O     0.44827   0.81756   0.27234   0.01267  Uiso   1.00
O42    O     0.47354   0.00504   0.36908   0.01267  Uiso   1.00
O43    O     0.68389   0.92979   0.28938   0.01267  Uiso   1.00
O44    O     0.40037   0.91887   0.18734   0.01267  Uiso   1.00
O45    O     0.36742   0.08802   0.15004   0.01267  Uiso   1.00
O46    O     0.30856   0.11466   0.00172   0.01267  Uiso   1.00
O47    O     0.37201   0.26211   0.16122   0.01267  Uiso   1.00
O48    O     0.58902   0.15582   0.10944   0.01267  Uiso   1.00
O49    O     0.01300   0.61360   0.46820   0.01267  Uiso   1.00
O50    O     0.09825   0.79395   0.60390   0.01267  Uiso   1.00
O51    O     0.15180   0.64690   0.63760   0.01267  Uiso   1.00
O52    O     0.30427   0.68087   0.54434   0.01267  Uiso   1.00
O53    O     0.03138   0.83388   0.44396   0.01267  Uiso   1.00
O54    O     0.92464   0.79649   0.26928   0.01267  Uiso   1.00
O55    O     0.20728   0.77148   0.33796   0.01267  Uiso   1.00
O56    O     0.96956   0.65476   0.30852   0.01267  Uiso   1.00
O57    O     0.17593   0.18244   0.72766   0.01267  Uiso   1.00
O58    O     0.10446   0.99496   0.63092   0.01267  Uiso   1.00
O59    O     0.39451   0.07021   0.71062   0.01267  Uiso   1.00
O60    O     0.21303   0.08113   0.81266   0.01267  Uiso   1.00
O61    O     0.21738   0.91198   0.84996   0.01267  Uiso   1.00
O62    O     0.30684   0.88534   0.99828   0.01267  Uiso   1.00
O63    O     0.21079   0.73789   0.83878   0.01267  Uiso   1.00
O64    O     0.47958   0.84418   0.89056   0.01267  Uiso   1.00
