data_TACYAX_clean
_audit_creation_date              2014-07-02
_audit_creation_method            'Materials Studio'
_symmetry_space_group_name_H-M    'P1'
_symmetry_Int_Tables_number       1
_symmetry_cell_setting            triclinic
loop_
_symmetry_equiv_pos_as_xyz
  x,y,z
_cell_length_a                    9.4090
_cell_length_b                    10.8752
_cell_length_c                    17.3451
_cell_angle_alpha                 77.3984
_cell_angle_beta                  74.2626
_cell_angle_gamma                 64.3680
loop_
_atom_site_label
_atom_site_type_symbol
_atom_site_fract_x
_atom_site_fract_y
_atom_site_fract_z
_atom_site_U_iso_or_equiv
_atom_site_adp_type
_atom_site_occupancy
Cu1    Cu    0.18190   0.56770   0.06670   0.01267  Uiso   1.00
Cu2    Cu    0.06870   0.92370   0.42710   0.01267  Uiso   1.00
Cu3    Cu    0.81630   0.43230   0.93330   0.01267  Uiso   1.00
Cu4    Cu    0.41950   0.07630   0.57290   0.01267  Uiso   1.00
C1     C     0.14870   0.93590   0.88830   0.01267  Uiso   1.00
C2     C     0.19820   0.78560   0.92020   0.01267  Uiso   1.00
C3     C     0.10930   0.76580   0.00520   0.01267  Uiso   1.00
C4     C     0.03170   0.78050   0.07270   0.01267  Uiso   1.00
C5     C     0.92230   0.84240   0.14520   0.01267  Uiso   1.00
C6     C     0.97880   0.99770   0.87370   0.01267  Uiso   1.00
C7     C     0.23080   0.38460   0.14500   0.01267  Uiso   1.00
C8     C     0.10190   0.45910   0.17310   0.01267  Uiso   1.00
C9     C     0.94250   0.51740   0.22600   0.01267  Uiso   1.00
C10    C     0.90920   0.41180   0.29460   0.01267  Uiso   1.00
C11    C     0.87610   0.31010   0.26290   0.01267  Uiso   1.00
C12    C     0.87050   0.18730   0.32730   0.01267  Uiso   1.00
C13    C     0.03620   0.09020   0.33840   0.01267  Uiso   1.00
C14    C     0.18010   0.03760   0.33380   0.01267  Uiso   1.00
C15    C     0.35040   0.00630   0.31490   0.01267  Uiso   1.00
C16    C     0.38660   0.12180   0.26000   0.01267  Uiso   1.00
C17    C     0.38110   0.13140   0.17260   0.01267  Uiso   1.00
C18    C     0.39020   0.26370   0.12330   0.01267  Uiso   1.00
C19    C     0.16660   0.73210   0.49770   0.01267  Uiso   1.00
C20    C     0.24490   0.71870   0.43150   0.01267  Uiso   1.00
C21    C     0.36410   0.65550   0.35930   0.01267  Uiso   1.00
C22    C     0.44220   0.49930   0.37490   0.01267  Uiso   1.00
C23    C     0.32510   0.43420   0.38200   0.01267  Uiso   1.00
C24    C     0.08510   0.71790   0.58350   0.01267  Uiso   1.00
C25    C     0.93400   0.28470   0.55770   0.01267  Uiso   1.00
C26    C     0.97290   0.06410   0.11170   0.01267  Uiso   1.00
C27    C     0.90400   0.21440   0.07980   0.01267  Uiso   1.00
C28    C     0.88030   0.23420   0.99480   0.01267  Uiso   1.00
C29    C     0.88490   0.21950   0.92730   0.01267  Uiso   1.00
C30    C     0.90990   0.15760   0.85480   0.01267  Uiso   1.00
C31    C     0.85020   0.00230   0.12630   0.01267  Uiso   1.00
C32    C     0.76040   0.61540   0.85500   0.01267  Uiso   1.00
C33    C     0.73410   0.54090   0.82690   0.01267  Uiso   1.00
C34    C     0.68590   0.48260   0.77400   0.01267  Uiso   1.00
C35    C     0.61560   0.58820   0.70540   0.01267  Uiso   1.00
C36    C     0.44910   0.68990   0.73710   0.01267  Uiso   1.00
C37    C     0.38510   0.81270   0.67270   0.01267  Uiso   1.00
C38    C     0.46480   0.90980   0.66160   0.01267  Uiso   1.00
C39    C     0.55150   0.96240   0.66620   0.01267  Uiso   1.00
C40    C     0.67160   0.99370   0.68510   0.01267  Uiso   1.00
C41    C     0.76840   0.87820   0.74000   0.01267  Uiso   1.00
C42    C     0.68510   0.86860   0.82740   0.01267  Uiso   1.00
C43    C     0.77720   0.73630   0.87670   0.01267  Uiso   1.00
C44    C     0.39640   0.26790   0.50230   0.01267  Uiso   1.00
C45    C     0.39510   0.28130   0.56850   0.01267  Uiso   1.00
C46    C     0.37890   0.34450   0.64070   0.01267  Uiso   1.00
C47    C     0.31640   0.50070   0.62510   0.01267  Uiso   1.00
C48    C     0.14130   0.56580   0.61800   0.01267  Uiso   1.00
C49    C     0.38650   0.28210   0.41650   0.01267  Uiso   1.00
C50    C     0.77640   0.71530   0.44230   0.01267  Uiso   1.00
S1     S     0.04610   0.09880   0.57680   0.01267  Uiso   1.00
S2     S     0.72170   0.90120   0.42320   0.01267  Uiso   1.00
O1     O     0.97670   0.04550   0.53410   0.01267  Uiso   1.00
O2     O     0.01230   0.06930   0.66310   0.01267  Uiso   1.00
O3     O     0.21240   0.07890   0.54110   0.01267  Uiso   1.00
O4     O     0.55630   0.95450   0.46590   0.01267  Uiso   1.00
O5     O     0.74470   0.93070   0.33690   0.01267  Uiso   1.00
O6     O     0.83240   0.92110   0.45890   0.01267  Uiso   1.00
F1     F     0.78080   0.31510   0.58310   0.01267  Uiso   1.00
F2     F     0.97690   0.34890   0.59830   0.01267  Uiso   1.00
F3     F     0.96550   0.32790   0.48150   0.01267  Uiso   1.00
F4     F     0.67900   0.68490   0.41690   0.01267  Uiso   1.00
F5     F     0.92410   0.65110   0.40170   0.01267  Uiso   1.00
F6     F     0.77490   0.67210   0.51850   0.01267  Uiso   1.00
