data_TAFCIO_clean
_audit_creation_date              2014-07-02
_audit_creation_method            'Materials Studio'
_symmetry_space_group_name_H-M    'P1'
_symmetry_Int_Tables_number       1
_symmetry_cell_setting            triclinic
loop_
_symmetry_equiv_pos_as_xyz
  x,y,z
_cell_length_a                    7.2300
_cell_length_b                    19.0300
_cell_length_c                    20.5206
_cell_angle_alpha                 106.6820
_cell_angle_beta                  90.0000
_cell_angle_gamma                 90.0000
loop_
_atom_site_label
_atom_site_type_symbol
_atom_site_fract_x
_atom_site_fract_y
_atom_site_fract_z
_atom_site_U_iso_or_equiv
_atom_site_adp_type
_atom_site_occupancy
Co1    Co    0.33170   0.97379   0.52443   0.01267  Uiso   1.00
Co2    Co    0.33170   0.52621   0.97557   0.01267  Uiso   1.00
Co3    Co    0.66830   0.02621   0.47557   0.01267  Uiso   1.00
Co4    Co    0.66830   0.47379   0.02443   0.01267  Uiso   1.00
H1     H     0.39780   0.82480   0.58460   0.01267  Uiso   1.00
H2     H     0.56000   0.74520   0.47730   0.01267  Uiso   1.00
H3     H     0.69090   0.62990   0.44390   0.01267  Uiso   1.00
H4     H     0.01350   0.82980   0.41730   0.01267  Uiso   1.00
H5     H     0.14200   0.71430   0.38240   0.01267  Uiso   1.00
H6     H     0.37230   0.53640   0.33730   0.01267  Uiso   1.00
H7     H     0.49980   0.52000   0.23100   0.01267  Uiso   1.00
H8     H     0.90480   0.60890   0.27320   0.01267  Uiso   1.00
H9     H     0.03050   0.58930   0.16620   0.01267  Uiso   1.00
H10    H     0.86030   0.91080   0.63310   0.01267  Uiso   1.00
H11    H     0.65900   0.87100   0.70200   0.01267  Uiso   1.00
H12    H     0.16480   0.72930   0.60880   0.01267  Uiso   1.00
H13    H     0.96820   0.69130   0.68010   0.01267  Uiso   1.00
H14    H     0.39780   0.67520   0.91540   0.01267  Uiso   1.00
H15    H     0.56000   0.75480   0.02270   0.01267  Uiso   1.00
H16    H     0.69090   0.87010   0.05610   0.01267  Uiso   1.00
H17    H     0.01350   0.67020   0.08270   0.01267  Uiso   1.00
H18    H     0.14200   0.78570   0.11760   0.01267  Uiso   1.00
H19    H     0.37230   0.96360   0.16270   0.01267  Uiso   1.00
H20    H     0.49980   0.98000   0.26900   0.01267  Uiso   1.00
H21    H     0.90480   0.89110   0.22680   0.01267  Uiso   1.00
H22    H     0.03050   0.91070   0.33380   0.01267  Uiso   1.00
H23    H     0.86030   0.58920   0.86690   0.01267  Uiso   1.00
H24    H     0.65900   0.62900   0.79800   0.01267  Uiso   1.00
H25    H     0.16480   0.77070   0.89120   0.01267  Uiso   1.00
H26    H     0.96820   0.80870   0.81990   0.01267  Uiso   1.00
H27    H     0.60220   0.17520   0.41540   0.01267  Uiso   1.00
H28    H     0.44000   0.25480   0.52270   0.01267  Uiso   1.00
H29    H     0.30910   0.37010   0.55610   0.01267  Uiso   1.00
H30    H     0.98650   0.17020   0.58270   0.01267  Uiso   1.00
H31    H     0.85800   0.28570   0.61760   0.01267  Uiso   1.00
H32    H     0.62770   0.46360   0.66270   0.01267  Uiso   1.00
H33    H     0.50020   0.48000   0.76900   0.01267  Uiso   1.00
H34    H     0.09520   0.39110   0.72680   0.01267  Uiso   1.00
H35    H     0.96950   0.41070   0.83380   0.01267  Uiso   1.00
H36    H     0.13970   0.08920   0.36690   0.01267  Uiso   1.00
H37    H     0.34100   0.12900   0.29800   0.01267  Uiso   1.00
H38    H     0.83520   0.27070   0.39120   0.01267  Uiso   1.00
H39    H     0.03180   0.30870   0.31990   0.01267  Uiso   1.00
H40    H     0.60220   0.32480   0.08460   0.01267  Uiso   1.00
H41    H     0.44000   0.24520   0.97730   0.01267  Uiso   1.00
H42    H     0.30910   0.12990   0.94390   0.01267  Uiso   1.00
H43    H     0.98650   0.32980   0.91730   0.01267  Uiso   1.00
H44    H     0.85800   0.21430   0.88240   0.01267  Uiso   1.00
H45    H     0.62770   0.03640   0.83730   0.01267  Uiso   1.00
H46    H     0.50020   0.02000   0.73100   0.01267  Uiso   1.00
H47    H     0.09520   0.10890   0.77320   0.01267  Uiso   1.00
H48    H     0.96950   0.08930   0.66620   0.01267  Uiso   1.00
H49    H     0.13970   0.41080   0.13310   0.01267  Uiso   1.00
H50    H     0.34100   0.37100   0.20200   0.01267  Uiso   1.00
H51    H     0.83520   0.22930   0.10880   0.01267  Uiso   1.00
H52    H     0.03180   0.19130   0.18010   0.01267  Uiso   1.00
C1     C     0.68470   0.87421   0.46902   0.01267  Uiso   1.00
C2     C     0.77020   0.79939   0.44957   0.01267  Uiso   1.00
C3     C     0.67730   0.73913   0.45788   0.01267  Uiso   1.00
C4     C     0.75570   0.66974   0.43774   0.01267  Uiso   1.00
C5     C     0.94700   0.78966   0.42196   0.01267  Uiso   1.00
C6     C     0.02420   0.72041   0.40146   0.01267  Uiso   1.00
C7     C     0.92950   0.65953   0.40863   0.01267  Uiso   1.00
C8     C     0.02600   0.58408   0.38548   0.01267  Uiso   1.00
C9     C     0.16010   0.58112   0.44346   0.01267  Uiso   1.00
C10    C     0.88870   0.51934   0.37446   0.01267  Uiso   1.00
C11    C     0.12450   0.57437   0.31676   0.01267  Uiso   1.00
C12    C     0.30340   0.54755   0.30333   0.01267  Uiso   1.00
C13    C     0.37940   0.53736   0.23937   0.01267  Uiso   1.00
C14    C     0.02430   0.59038   0.26470   0.01267  Uiso   1.00
C15    C     0.09970   0.57917   0.20065   0.01267  Uiso   1.00
C16    C     0.27890   0.55272   0.18779   0.01267  Uiso   1.00
C17    C     0.35940   0.53672   0.11754   0.01267  Uiso   1.00
C18    C     0.17280   0.85469   0.57628   0.01267  Uiso   1.00
C19    C     0.03760   0.82575   0.61587   0.01267  Uiso   1.00
C20    C     0.88330   0.86689   0.64301   0.01267  Uiso   1.00
C21    C     0.76320   0.84329   0.68469   0.01267  Uiso   1.00
C22    C     0.06570   0.75875   0.62881   0.01267  Uiso   1.00
C23    C     0.94700   0.73586   0.67128   0.01267  Uiso   1.00
C24    C     0.79670   0.77823   0.70098   0.01267  Uiso   1.00
C25    C     0.55030   0.68929   0.70469   0.01267  Uiso   1.00
C26    C     0.68470   0.62579   0.03098   0.01267  Uiso   1.00
C27    C     0.77020   0.70061   0.05043   0.01267  Uiso   1.00
C28    C     0.67730   0.76087   0.04212   0.01267  Uiso   1.00
C29    C     0.75570   0.83026   0.06226   0.01267  Uiso   1.00
C30    C     0.94700   0.71034   0.07804   0.01267  Uiso   1.00
C31    C     0.02420   0.77959   0.09854   0.01267  Uiso   1.00
C32    C     0.92950   0.84047   0.09137   0.01267  Uiso   1.00
C33    C     0.02600   0.91592   0.11452   0.01267  Uiso   1.00
C34    C     0.16010   0.91888   0.05654   0.01267  Uiso   1.00
C35    C     0.88870   0.98066   0.12554   0.01267  Uiso   1.00
C36    C     0.12450   0.92563   0.18324   0.01267  Uiso   1.00
C37    C     0.30340   0.95245   0.19667   0.01267  Uiso   1.00
C38    C     0.37940   0.96264   0.26063   0.01267  Uiso   1.00
C39    C     0.02430   0.90962   0.23530   0.01267  Uiso   1.00
C40    C     0.09970   0.92083   0.29935   0.01267  Uiso   1.00
C41    C     0.27890   0.94728   0.31221   0.01267  Uiso   1.00
C42    C     0.35940   0.96328   0.38246   0.01267  Uiso   1.00
C43    C     0.17280   0.64531   0.92372   0.01267  Uiso   1.00
C44    C     0.03760   0.67425   0.88413   0.01267  Uiso   1.00
C45    C     0.88330   0.63311   0.85699   0.01267  Uiso   1.00
C46    C     0.76320   0.65671   0.81531   0.01267  Uiso   1.00
C47    C     0.06570   0.74125   0.87119   0.01267  Uiso   1.00
C48    C     0.94700   0.76414   0.82872   0.01267  Uiso   1.00
C49    C     0.79670   0.72177   0.79902   0.01267  Uiso   1.00
C50    C     0.55030   0.81071   0.79531   0.01267  Uiso   1.00
C51    C     0.31530   0.12579   0.53098   0.01267  Uiso   1.00
C52    C     0.22980   0.20061   0.55043   0.01267  Uiso   1.00
C53    C     0.32270   0.26087   0.54212   0.01267  Uiso   1.00
C54    C     0.24430   0.33026   0.56226   0.01267  Uiso   1.00
C55    C     0.05300   0.21034   0.57804   0.01267  Uiso   1.00
C56    C     0.97580   0.27959   0.59854   0.01267  Uiso   1.00
C57    C     0.07050   0.34047   0.59137   0.01267  Uiso   1.00
C58    C     0.97400   0.41592   0.61452   0.01267  Uiso   1.00
C59    C     0.83990   0.41888   0.55654   0.01267  Uiso   1.00
C60    C     0.11130   0.48066   0.62554   0.01267  Uiso   1.00
C61    C     0.87550   0.42563   0.68324   0.01267  Uiso   1.00
C62    C     0.69660   0.45245   0.69667   0.01267  Uiso   1.00
C63    C     0.62060   0.46264   0.76063   0.01267  Uiso   1.00
C64    C     0.97570   0.40962   0.73530   0.01267  Uiso   1.00
C65    C     0.90030   0.42083   0.79935   0.01267  Uiso   1.00
C66    C     0.72110   0.44728   0.81221   0.01267  Uiso   1.00
C67    C     0.64060   0.46328   0.88246   0.01267  Uiso   1.00
C68    C     0.82720   0.14531   0.42372   0.01267  Uiso   1.00
C69    C     0.96240   0.17425   0.38413   0.01267  Uiso   1.00
C70    C     0.11670   0.13311   0.35699   0.01267  Uiso   1.00
C71    C     0.23680   0.15671   0.31531   0.01267  Uiso   1.00
C72    C     0.93430   0.24125   0.37119   0.01267  Uiso   1.00
C73    C     0.05300   0.26414   0.32872   0.01267  Uiso   1.00
C74    C     0.20330   0.22177   0.29902   0.01267  Uiso   1.00
C75    C     0.44970   0.31071   0.29531   0.01267  Uiso   1.00
C76    C     0.31530   0.37421   0.96902   0.01267  Uiso   1.00
C77    C     0.22980   0.29939   0.94957   0.01267  Uiso   1.00
C78    C     0.32270   0.23913   0.95788   0.01267  Uiso   1.00
C79    C     0.24430   0.16974   0.93774   0.01267  Uiso   1.00
C80    C     0.05300   0.28966   0.92196   0.01267  Uiso   1.00
C81    C     0.97580   0.22041   0.90146   0.01267  Uiso   1.00
C82    C     0.07050   0.15953   0.90863   0.01267  Uiso   1.00
C83    C     0.97400   0.08408   0.88548   0.01267  Uiso   1.00
C84    C     0.83990   0.08112   0.94346   0.01267  Uiso   1.00
C85    C     0.11130   0.01934   0.87446   0.01267  Uiso   1.00
C86    C     0.87550   0.07437   0.81676   0.01267  Uiso   1.00
C87    C     0.69660   0.04755   0.80333   0.01267  Uiso   1.00
C88    C     0.62060   0.03736   0.73937   0.01267  Uiso   1.00
C89    C     0.97570   0.09038   0.76470   0.01267  Uiso   1.00
C90    C     0.90030   0.07917   0.70065   0.01267  Uiso   1.00
C91    C     0.72110   0.05272   0.68779   0.01267  Uiso   1.00
C92    C     0.64060   0.03672   0.61754   0.01267  Uiso   1.00
C93    C     0.82720   0.35469   0.07628   0.01267  Uiso   1.00
C94    C     0.96240   0.32575   0.11587   0.01267  Uiso   1.00
C95    C     0.11670   0.36689   0.14301   0.01267  Uiso   1.00
C96    C     0.23680   0.34329   0.18469   0.01267  Uiso   1.00
C97    C     0.93430   0.25875   0.12881   0.01267  Uiso   1.00
C98    C     0.05300   0.23586   0.17128   0.01267  Uiso   1.00
C99    C     0.20330   0.27823   0.20098   0.01267  Uiso   1.00
C100   C     0.44970   0.18929   0.20469   0.01267  Uiso   1.00
C101   C     0.67460   0.75000   0.75000   0.01267  Uiso   1.00
C102   C     0.32540   0.25000   0.25000   0.01267  Uiso   1.00
O1     O     0.52530   0.88214   0.49604   0.01267  Uiso   1.00
O2     O     0.77420   0.92497   0.45639   0.01267  Uiso   1.00
O3     O     0.26530   0.55434   0.07303   0.01267  Uiso   1.00
O4     O     0.51370   0.50527   0.10810   0.01267  Uiso   1.00
O5     O     0.15250   0.91337   0.56403   0.01267  Uiso   1.00
O6     O     0.31620   0.81300   0.55572   0.01267  Uiso   1.00
O7     O     0.52530   0.61786   0.00396   0.01267  Uiso   1.00
O8     O     0.77420   0.57503   0.04361   0.01267  Uiso   1.00
O9     O     0.26530   0.94566   0.42697   0.01267  Uiso   1.00
O10    O     0.51370   0.99473   0.39190   0.01267  Uiso   1.00
O11    O     0.15250   0.58663   0.93597   0.01267  Uiso   1.00
O12    O     0.31620   0.68700   0.94428   0.01267  Uiso   1.00
O13    O     0.47470   0.11786   0.50396   0.01267  Uiso   1.00
O14    O     0.22580   0.07503   0.54361   0.01267  Uiso   1.00
O15    O     0.73470   0.44566   0.92697   0.01267  Uiso   1.00
O16    O     0.48630   0.49473   0.89190   0.01267  Uiso   1.00
O17    O     0.84750   0.08663   0.43597   0.01267  Uiso   1.00
O18    O     0.68380   0.18700   0.44428   0.01267  Uiso   1.00
O19    O     0.47470   0.38214   0.99604   0.01267  Uiso   1.00
O20    O     0.22580   0.42497   0.95639   0.01267  Uiso   1.00
O21    O     0.73470   0.05434   0.57303   0.01267  Uiso   1.00
O22    O     0.48630   0.00527   0.60810   0.01267  Uiso   1.00
O23    O     0.84750   0.41337   0.06403   0.01267  Uiso   1.00
O24    O     0.68380   0.31300   0.05572   0.01267  Uiso   1.00
F1     F     0.23420   0.51525   0.43541   0.01267  Uiso   1.00
F2     F     0.29980   0.62847   0.44862   0.01267  Uiso   1.00
F3     F     0.07440   0.59956   0.50378   0.01267  Uiso   1.00
F4     F     0.74870   0.52534   0.33414   0.01267  Uiso   1.00
F5     F     0.81470   0.51306   0.43196   0.01267  Uiso   1.00
F6     F     0.97160   0.45534   0.34445   0.01267  Uiso   1.00
F7     F     0.41210   0.66981   0.73929   0.01267  Uiso   1.00
F8     F     0.47350   0.71106   0.65441   0.01267  Uiso   1.00
F9     F     0.64620   0.62908   0.67507   0.01267  Uiso   1.00
F10    F     0.23420   0.98475   0.06459   0.01267  Uiso   1.00
F11    F     0.29980   0.87153   0.05138   0.01267  Uiso   1.00
F12    F     0.07440   0.90044   0.99622   0.01267  Uiso   1.00
F13    F     0.74870   0.97466   0.16586   0.01267  Uiso   1.00
F14    F     0.81470   0.98694   0.06804   0.01267  Uiso   1.00
F15    F     0.97160   0.04466   0.15555   0.01267  Uiso   1.00
F16    F     0.41210   0.83019   0.76071   0.01267  Uiso   1.00
F17    F     0.47350   0.78894   0.84559   0.01267  Uiso   1.00
F18    F     0.64620   0.87092   0.82493   0.01267  Uiso   1.00
F19    F     0.76580   0.48475   0.56459   0.01267  Uiso   1.00
F20    F     0.70020   0.37153   0.55138   0.01267  Uiso   1.00
F21    F     0.92560   0.40044   0.49622   0.01267  Uiso   1.00
F22    F     0.25130   0.47466   0.66586   0.01267  Uiso   1.00
F23    F     0.18530   0.48694   0.56804   0.01267  Uiso   1.00
F24    F     0.02840   0.54466   0.65555   0.01267  Uiso   1.00
F25    F     0.58790   0.33019   0.26071   0.01267  Uiso   1.00
F26    F     0.52650   0.28894   0.34559   0.01267  Uiso   1.00
F27    F     0.35380   0.37092   0.32493   0.01267  Uiso   1.00
F28    F     0.76580   0.01525   0.93541   0.01267  Uiso   1.00
F29    F     0.70020   0.12847   0.94862   0.01267  Uiso   1.00
F30    F     0.92560   0.09956   0.00378   0.01267  Uiso   1.00
F31    F     0.25130   0.02534   0.83414   0.01267  Uiso   1.00
F32    F     0.18530   0.01306   0.93196   0.01267  Uiso   1.00
F33    F     0.02840   0.95534   0.84445   0.01267  Uiso   1.00
F34    F     0.58790   0.16981   0.23929   0.01267  Uiso   1.00
F35    F     0.52650   0.21106   0.15441   0.01267  Uiso   1.00
F36    F     0.35380   0.12908   0.17507   0.01267  Uiso   1.00
