data_TAPXOZ_clean
_audit_creation_date              2014-07-02
_audit_creation_method            'Materials Studio'
_symmetry_space_group_name_H-M    'P1'
_symmetry_Int_Tables_number       1
_symmetry_cell_setting            triclinic
loop_
_symmetry_equiv_pos_as_xyz
  x,y,z
_cell_length_a                    7.2696
_cell_length_b                    15.1196
_cell_length_c                    15.4377
_cell_angle_alpha                 119.3210
_cell_angle_beta                  90.0000
_cell_angle_gamma                 90.0000
loop_
_atom_site_label
_atom_site_type_symbol
_atom_site_fract_x
_atom_site_fract_y
_atom_site_fract_z
_atom_site_U_iso_or_equiv
_atom_site_adp_type
_atom_site_occupancy
Tb1    Tb    0.76971   0.36341  -0.00000   0.01267  Uiso   1.00
Tb2    Tb    0.26971   0.63659   0.00000   0.01267  Uiso   1.00
Na1    Na    0.78080   0.67940   1.00000   0.01267  Uiso   1.00
Na2    Na    0.28080   0.32060   1.00000   0.01267  Uiso   1.00
H1     H     0.79820   0.30960   0.28700   0.01267  Uiso   1.00
H2     H     0.28750   0.29430   0.19040   0.01267  Uiso   1.00
H3     H     0.69080   0.30980   0.42840   0.01267  Uiso   1.00
H4     H     0.14930   0.29240   0.32880   0.01267  Uiso   1.00
H5     H     0.45390   0.19390   0.56440   0.01267  Uiso   1.00
H6     H     0.41780   0.47380   0.58240   0.01267  Uiso   1.00
H7     H     0.52660   0.27380   0.72380   0.01267  Uiso   1.00
H8     H     0.50830   0.54600   0.75040   0.01267  Uiso   1.00
H9     H     0.29820   0.69040   0.71300   0.01267  Uiso   1.00
H10    H     0.78750   0.70570   0.80960   0.01267  Uiso   1.00
H11    H     0.19080   0.69020   0.57160   0.01267  Uiso   1.00
H12    H     0.64930   0.70760   0.67120   0.01267  Uiso   1.00
H13    H     0.95390   0.80610   0.43560   0.01267  Uiso   1.00
H14    H     0.91780   0.52620   0.41760   0.01267  Uiso   1.00
H15    H     0.02660   0.72620   0.27620   0.01267  Uiso   1.00
H16    H     0.00830   0.45400   0.24960   0.01267  Uiso   1.00
H17    H     0.29820   0.97740   0.28700   0.01267  Uiso   1.00
H18    H     0.78750   0.89610   0.19040   0.01267  Uiso   1.00
H19    H     0.19080   0.11860   0.42840   0.01267  Uiso   1.00
H20    H     0.64930   0.03640   0.32880   0.01267  Uiso   1.00
H21    H     0.95390   0.37050   0.56440   0.01267  Uiso   1.00
H22    H     0.91780   0.10860   0.58240   0.01267  Uiso   1.00
H23    H     0.02660   0.45000   0.72380   0.01267  Uiso   1.00
H24    H     0.00830   0.20440   0.75040   0.01267  Uiso   1.00
H25    H     0.79820   0.02260   0.71300   0.01267  Uiso   1.00
H26    H     0.28750   0.10390   0.80960   0.01267  Uiso   1.00
H27    H     0.69080   0.88140   0.57160   0.01267  Uiso   1.00
H28    H     0.14930   0.96360   0.67120   0.01267  Uiso   1.00
H29    H     0.45390   0.62950   0.43560   0.01267  Uiso   1.00
H30    H     0.41780   0.89140   0.41760   0.01267  Uiso   1.00
H31    H     0.52660   0.55000   0.27620   0.01267  Uiso   1.00
H32    H     0.50830   0.79560   0.24960   0.01267  Uiso   1.00
C1     C     0.62480   0.31690   0.14140   0.01267  Uiso   1.00
C2     C     0.55650   0.30970   0.22880   0.01267  Uiso   1.00
C3     C     0.67210   0.30920   0.29700   0.01267  Uiso   1.00
C4     C     0.36400   0.29980   0.24120   0.01267  Uiso   1.00
C5     C     0.61000   0.30800   0.38080   0.01267  Uiso   1.00
C6     C     0.27500   0.29730   0.32160   0.01267  Uiso   1.00
C7     C     0.41800   0.30400   0.39120   0.01267  Uiso   1.00
C8     C     0.43370   0.32670   0.55840   0.01267  Uiso   1.00
C9     C     0.46430   0.26410   0.60040   0.01267  Uiso   1.00
C10    C     0.44400   0.43420   0.61160   0.01267  Uiso   1.00
C11    C     0.50780   0.31190   0.69220   0.01267  Uiso   1.00
C12    C     0.49600   0.47610   0.71100   0.01267  Uiso   1.00
C13    C     0.52910   0.41590   0.74860   0.01267  Uiso   1.00
C14    C     0.58470   0.46500   0.86020   0.01267  Uiso   1.00
C15    C     0.12480   0.68310   0.85860   0.01267  Uiso   1.00
C16    C     0.05650   0.69030   0.77120   0.01267  Uiso   1.00
C17    C     0.17210   0.69080   0.70300   0.01267  Uiso   1.00
C18    C     0.86400   0.70020   0.75880   0.01267  Uiso   1.00
C19    C     0.11000   0.69200   0.61920   0.01267  Uiso   1.00
C20    C     0.77500   0.70270   0.67840   0.01267  Uiso   1.00
C21    C     0.91800   0.69600   0.60880   0.01267  Uiso   1.00
C22    C     0.93370   0.67330   0.44160   0.01267  Uiso   1.00
C23    C     0.96430   0.73590   0.39960   0.01267  Uiso   1.00
C24    C     0.94400   0.56580   0.38840   0.01267  Uiso   1.00
C25    C     0.00780   0.68810   0.30780   0.01267  Uiso   1.00
C26    C     0.99600   0.52390   0.28900   0.01267  Uiso   1.00
C27    C     0.02910   0.58410   0.25140   0.01267  Uiso   1.00
C28    C     0.08470   0.53500   0.13980   0.01267  Uiso   1.00
C29    C     0.12480   0.82450   0.14140   0.01267  Uiso   1.00
C30    C     0.05650   0.91910   0.22880   0.01267  Uiso   1.00
C31    C     0.17210   0.98780   0.29700   0.01267  Uiso   1.00
C32    C     0.86400   0.94140   0.24120   0.01267  Uiso   1.00
C33    C     0.11000   0.07280   0.38080   0.01267  Uiso   1.00
C34    C     0.77500   0.02430   0.32160   0.01267  Uiso   1.00
C35    C     0.91800   0.08720   0.39120   0.01267  Uiso   1.00
C36    C     0.93370   0.23170   0.55840   0.01267  Uiso   1.00
C37    C     0.96430   0.33630   0.60040   0.01267  Uiso   1.00
C38    C     0.94400   0.17740   0.61160   0.01267  Uiso   1.00
C39    C     0.00780   0.38030   0.69220   0.01267  Uiso   1.00
C40    C     0.99600   0.23490   0.71100   0.01267  Uiso   1.00
C41    C     0.02910   0.33270   0.74860   0.01267  Uiso   1.00
C42    C     0.08470   0.39520   0.86020   0.01267  Uiso   1.00
C43    C     0.62480   0.17550   0.85860   0.01267  Uiso   1.00
C44    C     0.55650   0.08090   0.77120   0.01267  Uiso   1.00
C45    C     0.67210   0.01220   0.70300   0.01267  Uiso   1.00
C46    C     0.36400   0.05860   0.75880   0.01267  Uiso   1.00
C47    C     0.61000   0.92720   0.61920   0.01267  Uiso   1.00
C48    C     0.27500   0.97570   0.67840   0.01267  Uiso   1.00
C49    C     0.41800   0.91280   0.60880   0.01267  Uiso   1.00
C50    C     0.43370   0.76830   0.44160   0.01267  Uiso   1.00
C51    C     0.46430   0.66370   0.39960   0.01267  Uiso   1.00
C52    C     0.44400   0.82260   0.38840   0.01267  Uiso   1.00
C53    C     0.50780   0.61970   0.30780   0.01267  Uiso   1.00
C54    C     0.49600   0.76510   0.28900   0.01267  Uiso   1.00
C55    C     0.52910   0.66730   0.25140   0.01267  Uiso   1.00
C56    C     0.58470   0.60480   0.13980   0.01267  Uiso   1.00
O1     O     0.78170   0.31020   0.12420   0.01267  Uiso   1.00
O2     O     0.51920   0.32460   0.08420   0.01267  Uiso   1.00
O3     O     0.34160   0.28000   0.46240   0.01267  Uiso   1.00
O4     O     0.66660   0.41330   0.89100   0.01267  Uiso   1.00
O5     O     0.54780   0.56140   0.91820   0.01267  Uiso   1.00
O6     O     0.28170   0.68980   0.87580   0.01267  Uiso   1.00
O7     O     0.01920   0.67540   0.91580   0.01267  Uiso   1.00
O8     O     0.84160   0.72000   0.53760   0.01267  Uiso   1.00
O9     O     0.16660   0.58670   0.10900   0.01267  Uiso   1.00
O10    O     0.04780   0.43860   0.08180   0.01267  Uiso   1.00
O11    O     0.28170   0.81400   0.12420   0.01267  Uiso   1.00
O12    O     0.01920   0.75960   0.08420   0.01267  Uiso   1.00
O13    O     0.84160   0.18240   0.46240   0.01267  Uiso   1.00
O14    O     0.16660   0.47770   0.89100   0.01267  Uiso   1.00
O15    O     0.04780   0.35680   0.91820   0.01267  Uiso   1.00
O16    O     0.78170   0.18600   0.87580   0.01267  Uiso   1.00
O17    O     0.51920   0.24040   0.91580   0.01267  Uiso   1.00
O18    O     0.34160   0.81760   0.53760   0.01267  Uiso   1.00
O19    O     0.66660   0.52230   0.10900   0.01267  Uiso   1.00
O20    O     0.54780   0.64320   0.08180   0.01267  Uiso   1.00
