data_TEBYIK_clean
_audit_creation_date              2014-07-02
_audit_creation_method            'Materials Studio'
_symmetry_space_group_name_H-M    'P1'
_symmetry_Int_Tables_number       1
_symmetry_cell_setting            triclinic
loop_
_symmetry_equiv_pos_as_xyz
  x,y,z
_cell_length_a                    6.0705
_cell_length_b                    16.2527
_cell_length_c                    21.8470
_cell_angle_alpha                 96.4960
_cell_angle_beta                  90.0000
_cell_angle_gamma                 90.0000
loop_
_atom_site_label
_atom_site_type_symbol
_atom_site_fract_x
_atom_site_fract_y
_atom_site_fract_z
_atom_site_U_iso_or_equiv
_atom_site_adp_type
_atom_site_occupancy
Co1    Co    0.38385   0.75945   0.84848   0.01267  Uiso   1.00
Co2    Co    0.88385   0.74055   0.65152   0.01267  Uiso   1.00
Co3    Co    0.61615   0.24055   0.15152   0.01267  Uiso   1.00
Co4    Co    0.11615   0.25945   0.34848   0.01267  Uiso   1.00
H1     H     0.42700   0.95850   0.69500   0.01267  Uiso   1.00
H2     H     0.11490   0.03730   0.72120   0.01267  Uiso   1.00
H3     H     0.98690   0.89340   0.85320   0.01267  Uiso   1.00
H4     H     0.10200   0.09220   0.88140   0.01267  Uiso   1.00
H5     H     0.48210   0.01240   0.86740   0.01267  Uiso   1.00
H6     H     0.33610   0.57850   0.87920   0.01267  Uiso   1.00
H7     H     0.52280   0.48280   0.92870   0.01267  Uiso   1.00
H8     H     0.84690   0.44060   0.98180   0.01267  Uiso   1.00
H9     H     0.01820   0.64510   0.95730   0.01267  Uiso   1.00
H10    H     0.81870   0.73600   0.90570   0.01267  Uiso   1.00
H11    H     0.41220   0.07130   0.96740   0.01267  Uiso   1.00
H12    H     0.03180   0.15490   0.98040   0.01267  Uiso   1.00
H13    H     0.92700   0.54150   0.80500   0.01267  Uiso   1.00
H14    H     0.61490   0.46270   0.77880   0.01267  Uiso   1.00
H15    H     0.48690   0.60660   0.64680   0.01267  Uiso   1.00
H16    H     0.60200   0.40780   0.61860   0.01267  Uiso   1.00
H17    H     0.98210   0.48760   0.63260   0.01267  Uiso   1.00
H18    H     0.83610   0.92150   0.62080   0.01267  Uiso   1.00
H19    H     0.02280   0.01720   0.57130   0.01267  Uiso   1.00
H20    H     0.34690   0.05940   0.51820   0.01267  Uiso   1.00
H21    H     0.51820   0.85490   0.54270   0.01267  Uiso   1.00
H22    H     0.31870   0.76400   0.59430   0.01267  Uiso   1.00
H23    H     0.91220   0.42870   0.53260   0.01267  Uiso   1.00
H24    H     0.53180   0.34510   0.51960   0.01267  Uiso   1.00
H25    H     0.57300   0.04150   0.30500   0.01267  Uiso   1.00
H26    H     0.88510   0.96270   0.27880   0.01267  Uiso   1.00
H27    H     0.01310   0.10660   0.14680   0.01267  Uiso   1.00
H28    H     0.89800   0.90780   0.11860   0.01267  Uiso   1.00
H29    H     0.51790   0.98760   0.13260   0.01267  Uiso   1.00
H30    H     0.66390   0.42150   0.12080   0.01267  Uiso   1.00
H31    H     0.47720   0.51720   0.07130   0.01267  Uiso   1.00
H32    H     0.15310   0.55940   0.01820   0.01267  Uiso   1.00
H33    H     0.98180   0.35490   0.04270   0.01267  Uiso   1.00
H34    H     0.18130   0.26400   0.09430   0.01267  Uiso   1.00
H35    H     0.58780   0.92870   0.03260   0.01267  Uiso   1.00
H36    H     0.96820   0.84510   0.01960   0.01267  Uiso   1.00
H37    H     0.07300   0.45850   0.19500   0.01267  Uiso   1.00
H38    H     0.38510   0.53730   0.22120   0.01267  Uiso   1.00
H39    H     0.51310   0.39340   0.35320   0.01267  Uiso   1.00
H40    H     0.39800   0.59220   0.38140   0.01267  Uiso   1.00
H41    H     0.01790   0.51240   0.36740   0.01267  Uiso   1.00
H42    H     0.16390   0.07850   0.37920   0.01267  Uiso   1.00
H43    H     0.97720   0.98280   0.42870   0.01267  Uiso   1.00
H44    H     0.65310   0.94060   0.48180   0.01267  Uiso   1.00
H45    H     0.48180   0.14510   0.45730   0.01267  Uiso   1.00
H46    H     0.68130   0.23600   0.40570   0.01267  Uiso   1.00
H47    H     0.08780   0.57130   0.46740   0.01267  Uiso   1.00
H48    H     0.46820   0.65490   0.48040   0.01267  Uiso   1.00
C1     C     0.57840   0.82390   0.74610   0.01267  Uiso   1.00
C2     C     0.38400   0.87980   0.75990   0.01267  Uiso   1.00
C3     C     0.33590   0.94610   0.72700   0.01267  Uiso   1.00
C4     C     0.15100   0.99280   0.74260   0.01267  Uiso   1.00
C5     C     0.02150   0.97320   0.78980   0.01267  Uiso   1.00
C6     C     0.07700   0.90670   0.82140   0.01267  Uiso   1.00
C7     C     0.79830   0.04940   0.86510   0.01267  Uiso   1.00
C8     C     0.96200   0.08940   0.89830   0.01267  Uiso   1.00
C9     C     0.59230   0.04140   0.89030   0.01267  Uiso   1.00
C10    C     0.47480   0.59220   0.89530   0.01267  Uiso   1.00
C11    C     0.58560   0.53430   0.92530   0.01267  Uiso   1.00
C12    C     0.79360   0.55410   0.95050   0.01267  Uiso   1.00
C13    C     0.90820   0.49320   0.98370   0.01267  Uiso   1.00
C14    C     0.87900   0.63010   0.94210   0.01267  Uiso   1.00
C15    C     0.75750   0.68480   0.91100   0.01267  Uiso   1.00
C16    C     0.55040   0.07690   0.94990   0.01267  Uiso   1.00
C17    C     0.71410   0.12060   0.98340   0.01267  Uiso   1.00
C18    C     0.92030   0.12630   0.95780   0.01267  Uiso   1.00
C19    C     0.66720   0.16280   0.04660   0.01267  Uiso   1.00
C20    C     0.07840   0.67610   0.75390   0.01267  Uiso   1.00
C21    C     0.88400   0.62020   0.74010   0.01267  Uiso   1.00
C22    C     0.83590   0.55390   0.77300   0.01267  Uiso   1.00
C23    C     0.65100   0.50720   0.75740   0.01267  Uiso   1.00
C24    C     0.52150   0.52680   0.71020   0.01267  Uiso   1.00
C25    C     0.57700   0.59330   0.67860   0.01267  Uiso   1.00
C26    C     0.29830   0.45060   0.63490   0.01267  Uiso   1.00
C27    C     0.46200   0.41060   0.60170   0.01267  Uiso   1.00
C28    C     0.09230   0.45860   0.60970   0.01267  Uiso   1.00
C29    C     0.97480   0.90780   0.60470   0.01267  Uiso   1.00
C30    C     0.08560   0.96570   0.57470   0.01267  Uiso   1.00
C31    C     0.29360   0.94590   0.54950   0.01267  Uiso   1.00
C32    C     0.40820   0.00680   0.51630   0.01267  Uiso   1.00
C33    C     0.37900   0.86990   0.55790   0.01267  Uiso   1.00
C34    C     0.25750   0.81520   0.58900   0.01267  Uiso   1.00
C35    C     0.05040   0.42310   0.55010   0.01267  Uiso   1.00
C36    C     0.21410   0.37940   0.51660   0.01267  Uiso   1.00
C37    C     0.42030   0.37370   0.54220   0.01267  Uiso   1.00
C38    C     0.16720   0.33720   0.45340   0.01267  Uiso   1.00
C39    C     0.42160   0.17610   0.25390   0.01267  Uiso   1.00
C40    C     0.61600   0.12020   0.24010   0.01267  Uiso   1.00
C41    C     0.66410   0.05390   0.27300   0.01267  Uiso   1.00
C42    C     0.84900   0.00720   0.25740   0.01267  Uiso   1.00
C43    C     0.97850   0.02680   0.21020   0.01267  Uiso   1.00
C44    C     0.92300   0.09330   0.17860   0.01267  Uiso   1.00
C45    C     0.20170   0.95060   0.13490   0.01267  Uiso   1.00
C46    C     0.03800   0.91060   0.10170   0.01267  Uiso   1.00
C47    C     0.40770   0.95860   0.10970   0.01267  Uiso   1.00
C48    C     0.52520   0.40780   0.10470   0.01267  Uiso   1.00
C49    C     0.41440   0.46570   0.07470   0.01267  Uiso   1.00
C50    C     0.20640   0.44590   0.04950   0.01267  Uiso   1.00
C51    C     0.09180   0.50680   0.01630   0.01267  Uiso   1.00
C52    C     0.12100   0.36990   0.05790   0.01267  Uiso   1.00
C53    C     0.24250   0.31520   0.08900   0.01267  Uiso   1.00
C54    C     0.44960   0.92310   0.05010   0.01267  Uiso   1.00
C55    C     0.28590   0.87940   0.01660   0.01267  Uiso   1.00
C56    C     0.07970   0.87370   0.04220   0.01267  Uiso   1.00
C57    C     0.33280   0.83720   0.95340   0.01267  Uiso   1.00
C58    C     0.92160   0.32390   0.24610   0.01267  Uiso   1.00
C59    C     0.11600   0.37980   0.25990   0.01267  Uiso   1.00
C60    C     0.16410   0.44610   0.22700   0.01267  Uiso   1.00
C61    C     0.34900   0.49280   0.24260   0.01267  Uiso   1.00
C62    C     0.47850   0.47320   0.28980   0.01267  Uiso   1.00
C63    C     0.42300   0.40670   0.32140   0.01267  Uiso   1.00
C64    C     0.70170   0.54940   0.36510   0.01267  Uiso   1.00
C65    C     0.53800   0.58940   0.39830   0.01267  Uiso   1.00
C66    C     0.90770   0.54140   0.39030   0.01267  Uiso   1.00
C67    C     0.02520   0.09220   0.39530   0.01267  Uiso   1.00
C68    C     0.91440   0.03430   0.42530   0.01267  Uiso   1.00
C69    C     0.70640   0.05410   0.45050   0.01267  Uiso   1.00
C70    C     0.59180   0.99320   0.48370   0.01267  Uiso   1.00
C71    C     0.62100   0.13010   0.44210   0.01267  Uiso   1.00
C72    C     0.74250   0.18480   0.41100   0.01267  Uiso   1.00
C73    C     0.94960   0.57690   0.44990   0.01267  Uiso   1.00
C74    C     0.78590   0.62060   0.48340   0.01267  Uiso   1.00
C75    C     0.57970   0.62630   0.45780   0.01267  Uiso   1.00
C76    C     0.83280   0.66280   0.54660   0.01267  Uiso   1.00
N1     N     0.55600   0.66680   0.88830   0.01267  Uiso   1.00
N2     N     0.25730   0.86150   0.80690   0.01267  Uiso   1.00
N3     N     0.05600   0.83320   0.61170   0.01267  Uiso   1.00
N4     N     0.75730   0.63850   0.69310   0.01267  Uiso   1.00
N5     N     0.44400   0.33320   0.11170   0.01267  Uiso   1.00
N6     N     0.74270   0.13850   0.19310   0.01267  Uiso   1.00
N7     N     0.94400   0.16680   0.38830   0.01267  Uiso   1.00
N8     N     0.24270   0.36150   0.30690   0.01267  Uiso   1.00
O1     O     0.62510   0.77590   0.78570   0.01267  Uiso   1.00
O2     O     0.82740   0.01540   0.80390   0.01267  Uiso   1.00
O3     O     0.81310   0.21070   0.07273   0.01267  Uiso   1.00
O4     O     0.48790   0.15130   0.07260   0.01267  Uiso   1.00
O5     O     0.68130   0.82810   0.69714   0.01267  Uiso   1.00
O6     O     0.12510   0.72410   0.71430   0.01267  Uiso   1.00
O7     O     0.32740   0.48460   0.69610   0.01267  Uiso   1.00
O8     O     0.31310   0.28930   0.42727   0.01267  Uiso   1.00
O9     O     0.98790   0.34870   0.42740   0.01267  Uiso   1.00
O10    O     0.18130   0.67190   0.80286   0.01267  Uiso   1.00
O11    O     0.37490   0.22410   0.21430   0.01267  Uiso   1.00
O12    O     0.17260   0.98460   0.19610   0.01267  Uiso   1.00
O13    O     0.18690   0.78930   0.92727   0.01267  Uiso   1.00
O14    O     0.51210   0.84870   0.92740   0.01267  Uiso   1.00
O15    O     0.31870   0.17190   0.30286   0.01267  Uiso   1.00
O16    O     0.87490   0.27590   0.28570   0.01267  Uiso   1.00
O17    O     0.67260   0.51540   0.30390   0.01267  Uiso   1.00
O18    O     0.68690   0.71070   0.57273   0.01267  Uiso   1.00
O19    O     0.01210   0.65130   0.57260   0.01267  Uiso   1.00
O20    O     0.81870   0.32810   0.19714   0.01267  Uiso   1.00
