data_TEDGUG_charged
_audit_creation_date              2014-07-02
_audit_creation_method            'Materials Studio'
_symmetry_space_group_name_H-M    'P1'
_symmetry_Int_Tables_number       1
_symmetry_cell_setting            triclinic
loop_
_symmetry_equiv_pos_as_xyz
  x,y,z
_cell_length_a                    18.6533
_cell_length_b                    18.6533
_cell_length_c                    18.6533
_cell_angle_alpha                 105.3530
_cell_angle_beta                  105.3530
_cell_angle_gamma                 105.3530
loop_
_atom_site_label
_atom_site_type_symbol
_atom_site_fract_x
_atom_site_fract_y
_atom_site_fract_z
_atom_site_U_iso_or_equiv
_atom_site_adp_type
_atom_site_occupancy
Zn1    Zn    0.56462   0.43536   0.00002   0.01267  Uiso   1.00
Zn2    Zn    0.00002   0.56462   0.43536   0.01267  Uiso   1.00
Zn3    Zn    0.43536   0.00002   0.56462   0.01267  Uiso   1.00
Zn4    Zn    0.43538   0.56464   0.99998   0.01267  Uiso   1.00
Zn5    Zn    0.99998   0.43538   0.56464   0.01267  Uiso   1.00
Zn6    Zn    0.56464   0.99998   0.43538   0.01267  Uiso   1.00
H1     H     0.71330   0.37030   0.23470   0.01267  Uiso   1.00
H2     H     0.71290   0.23430   0.36930   0.01267  Uiso   1.00
H3     H     0.52100   0.17580   0.17510   0.01267  Uiso   1.00
H4     H     0.23470   0.71330   0.37030   0.01267  Uiso   1.00
H5     H     0.36930   0.71290   0.23430   0.01267  Uiso   1.00
H6     H     0.17510   0.52100   0.17580   0.01267  Uiso   1.00
H7     H     0.37030   0.23470   0.71330   0.01267  Uiso   1.00
H8     H     0.23430   0.36930   0.71290   0.01267  Uiso   1.00
H9     H     0.17580   0.17510   0.52100   0.01267  Uiso   1.00
H10    H     0.28670   0.62970   0.76530   0.01267  Uiso   1.00
H11    H     0.28710   0.76570   0.63070   0.01267  Uiso   1.00
H12    H     0.47900   0.82420   0.82490   0.01267  Uiso   1.00
H13    H     0.76530   0.28670   0.62970   0.01267  Uiso   1.00
H14    H     0.63070   0.28710   0.76570   0.01267  Uiso   1.00
H15    H     0.82490   0.47900   0.82420   0.01267  Uiso   1.00
H16    H     0.62970   0.76530   0.28670   0.01267  Uiso   1.00
H17    H     0.76570   0.63070   0.28710   0.01267  Uiso   1.00
H18    H     0.82420   0.82490   0.47900   0.01267  Uiso   1.00
C1     C     0.72630   0.30950   0.31010   0.01267  Uiso   1.00
C2     C     0.61150   0.27470   0.19360   0.01267  Uiso   1.00
C3     C     0.61160   0.19330   0.27460   0.01267  Uiso   1.00
C4     C     0.68780   0.32560   0.24430   0.01267  Uiso   1.00
C5     C     0.68750   0.24410   0.32490   0.01267  Uiso   1.00
C6     C     0.80740   0.36560   0.36580   0.01267  Uiso   1.00
C7     C     0.57270   0.20910   0.20860   0.01267  Uiso   1.00
C8     C     0.57110   0.29330   0.12420   0.01267  Uiso   1.00
C9     C     0.57200   0.12430   0.29380   0.01267  Uiso   1.00
C10    C     0.31010   0.72630   0.30950   0.01267  Uiso   1.00
C11    C     0.19360   0.61150   0.27470   0.01267  Uiso   1.00
C12    C     0.27460   0.61160   0.19330   0.01267  Uiso   1.00
C13    C     0.24430   0.68780   0.32560   0.01267  Uiso   1.00
C14    C     0.32490   0.68750   0.24410   0.01267  Uiso   1.00
C15    C     0.36580   0.80740   0.36560   0.01267  Uiso   1.00
C16    C     0.20860   0.57270   0.20910   0.01267  Uiso   1.00
C17    C     0.12420   0.57110   0.29330   0.01267  Uiso   1.00
C18    C     0.29380   0.57200   0.12430   0.01267  Uiso   1.00
C19    C     0.30950   0.31010   0.72630   0.01267  Uiso   1.00
C20    C     0.27470   0.19360   0.61150   0.01267  Uiso   1.00
C21    C     0.19330   0.27460   0.61160   0.01267  Uiso   1.00
C22    C     0.32560   0.24430   0.68780   0.01267  Uiso   1.00
C23    C     0.24410   0.32490   0.68750   0.01267  Uiso   1.00
C24    C     0.36560   0.36580   0.80740   0.01267  Uiso   1.00
C25    C     0.20910   0.20860   0.57270   0.01267  Uiso   1.00
C26    C     0.29330   0.12420   0.57110   0.01267  Uiso   1.00
C27    C     0.12430   0.29380   0.57200   0.01267  Uiso   1.00
C28    C     0.27370   0.69050   0.68990   0.01267  Uiso   1.00
C29    C     0.38850   0.72530   0.80640   0.01267  Uiso   1.00
C30    C     0.38840   0.80670   0.72540   0.01267  Uiso   1.00
C31    C     0.31220   0.67440   0.75570   0.01267  Uiso   1.00
C32    C     0.31250   0.75590   0.67510   0.01267  Uiso   1.00
C33    C     0.19260   0.63440   0.63420   0.01267  Uiso   1.00
C34    C     0.42730   0.79090   0.79140   0.01267  Uiso   1.00
C35    C     0.42890   0.70670   0.87580   0.01267  Uiso   1.00
C36    C     0.42800   0.87570   0.70620   0.01267  Uiso   1.00
C37    C     0.68990   0.27370   0.69050   0.01267  Uiso   1.00
C38    C     0.80640   0.38850   0.72530   0.01267  Uiso   1.00
C39    C     0.72540   0.38840   0.80670   0.01267  Uiso   1.00
C40    C     0.75570   0.31220   0.67440   0.01267  Uiso   1.00
C41    C     0.67510   0.31250   0.75590   0.01267  Uiso   1.00
C42    C     0.63420   0.19260   0.63440   0.01267  Uiso   1.00
C43    C     0.79140   0.42730   0.79090   0.01267  Uiso   1.00
C44    C     0.87580   0.42890   0.70670   0.01267  Uiso   1.00
C45    C     0.70620   0.42800   0.87570   0.01267  Uiso   1.00
C46    C     0.69050   0.68990   0.27370   0.01267  Uiso   1.00
C47    C     0.72530   0.80640   0.38850   0.01267  Uiso   1.00
C48    C     0.80670   0.72540   0.38840   0.01267  Uiso   1.00
C49    C     0.67440   0.75570   0.31220   0.01267  Uiso   1.00
C50    C     0.75590   0.67510   0.31250   0.01267  Uiso   1.00
C51    C     0.63440   0.63420   0.19260   0.01267  Uiso   1.00
C52    C     0.79090   0.79140   0.42730   0.01267  Uiso   1.00
C53    C     0.70670   0.87580   0.42890   0.01267  Uiso   1.00
C54    C     0.87570   0.70620   0.42800   0.01267  Uiso   1.00
N1     N     0.84740   0.35510   0.43020   0.01267  Uiso   1.00
N2     N     0.54930   0.34980   0.04360   0.01267  Uiso   1.00
N3     N     0.60700   0.35320   0.10730   0.01267  Uiso   1.00
N4     N     0.84690   0.43090   0.35550   0.01267  Uiso   1.00
N5     N     0.91570   0.46130   0.41620   0.01267  Uiso   1.00
N6     N     0.91610   0.41620   0.46150   0.01267  Uiso   1.00
N7     N     0.49710   0.25240   0.07500   0.01267  Uiso   1.00
N8     N     0.48370   0.28950   0.02460   0.01267  Uiso   1.00
N9     N     0.60690   0.10730   0.35330   0.01267  Uiso   1.00
N10    N     0.49670   0.07510   0.25270   0.01267  Uiso   1.00
N11    N     0.55020   0.04330   0.35040   0.01267  Uiso   1.00
N12    N     0.48390   0.02410   0.28950   0.01267  Uiso   1.00
N13    N     0.43020   0.84740   0.35510   0.01267  Uiso   1.00
N14    N     0.04360   0.54930   0.34980   0.01267  Uiso   1.00
N15    N     0.10730   0.60700   0.35320   0.01267  Uiso   1.00
N16    N     0.35550   0.84690   0.43090   0.01267  Uiso   1.00
N17    N     0.41620   0.91570   0.46130   0.01267  Uiso   1.00
N18    N     0.46150   0.91610   0.41620   0.01267  Uiso   1.00
N19    N     0.07500   0.49710   0.25240   0.01267  Uiso   1.00
N20    N     0.02460   0.48370   0.28950   0.01267  Uiso   1.00
N21    N     0.35330   0.60690   0.10730   0.01267  Uiso   1.00
N22    N     0.25270   0.49670   0.07510   0.01267  Uiso   1.00
N23    N     0.35040   0.55020   0.04330   0.01267  Uiso   1.00
N24    N     0.28950   0.48390   0.02410   0.01267  Uiso   1.00
N25    N     0.35510   0.43020   0.84740   0.01267  Uiso   1.00
N26    N     0.34980   0.04360   0.54930   0.01267  Uiso   1.00
N27    N     0.35320   0.10730   0.60700   0.01267  Uiso   1.00
N28    N     0.43090   0.35550   0.84690   0.01267  Uiso   1.00
N29    N     0.46130   0.41620   0.91570   0.01267  Uiso   1.00
N30    N     0.41620   0.46150   0.91610   0.01267  Uiso   1.00
N31    N     0.25240   0.07500   0.49710   0.01267  Uiso   1.00
N32    N     0.28950   0.02460   0.48370   0.01267  Uiso   1.00
N33    N     0.10730   0.35330   0.60690   0.01267  Uiso   1.00
N34    N     0.07510   0.25270   0.49670   0.01267  Uiso   1.00
N35    N     0.04330   0.35040   0.55020   0.01267  Uiso   1.00
N36    N     0.02410   0.28950   0.48390   0.01267  Uiso   1.00
N37    N     0.15260   0.64490   0.56980   0.01267  Uiso   1.00
N38    N     0.45070   0.65020   0.95640   0.01267  Uiso   1.00
N39    N     0.39300   0.64680   0.89270   0.01267  Uiso   1.00
N40    N     0.15310   0.56910   0.64450   0.01267  Uiso   1.00
N41    N     0.08430   0.53870   0.58380   0.01267  Uiso   1.00
N42    N     0.08390   0.58380   0.53850   0.01267  Uiso   1.00
N43    N     0.50290   0.74760   0.92500   0.01267  Uiso   1.00
N44    N     0.51630   0.71050   0.97540   0.01267  Uiso   1.00
N45    N     0.39310   0.89270   0.64670   0.01267  Uiso   1.00
N46    N     0.50330   0.92490   0.74730   0.01267  Uiso   1.00
N47    N     0.44980   0.95670   0.64960   0.01267  Uiso   1.00
N48    N     0.51610   0.97590   0.71050   0.01267  Uiso   1.00
N49    N     0.56980   0.15260   0.64490   0.01267  Uiso   1.00
N50    N     0.95640   0.45070   0.65020   0.01267  Uiso   1.00
N51    N     0.89270   0.39300   0.64680   0.01267  Uiso   1.00
N52    N     0.64450   0.15310   0.56910   0.01267  Uiso   1.00
N53    N     0.58380   0.08430   0.53870   0.01267  Uiso   1.00
N54    N     0.53850   0.08390   0.58380   0.01267  Uiso   1.00
N55    N     0.92500   0.50290   0.74760   0.01267  Uiso   1.00
N56    N     0.97540   0.51630   0.71050   0.01267  Uiso   1.00
N57    N     0.64670   0.39310   0.89270   0.01267  Uiso   1.00
N58    N     0.74730   0.50330   0.92490   0.01267  Uiso   1.00
N59    N     0.64960   0.44980   0.95670   0.01267  Uiso   1.00
N60    N     0.71050   0.51610   0.97590   0.01267  Uiso   1.00
N61    N     0.64490   0.56980   0.15260   0.01267  Uiso   1.00
N62    N     0.65020   0.95640   0.45070   0.01267  Uiso   1.00
N63    N     0.64680   0.89270   0.39300   0.01267  Uiso   1.00
N64    N     0.56910   0.64450   0.15310   0.01267  Uiso   1.00
N65    N     0.53870   0.58380   0.08430   0.01267  Uiso   1.00
N66    N     0.58380   0.53850   0.08390   0.01267  Uiso   1.00
N67    N     0.74760   0.92500   0.50290   0.01267  Uiso   1.00
N68    N     0.71050   0.97540   0.51630   0.01267  Uiso   1.00
N69    N     0.89270   0.64670   0.39310   0.01267  Uiso   1.00
N70    N     0.92490   0.74730   0.50330   0.01267  Uiso   1.00
N71    N     0.95670   0.64960   0.44980   0.01267  Uiso   1.00
N72    N     0.97590   0.71050   0.51610   0.01267  Uiso   1.00
Zn7    Zn    0.50000   0.50000   0.50000   0.01267  Uiso   1.00
H19    H     0.59150   0.67270   0.43210   0.01267  Uiso   1.00
H20    H     0.57230   0.75070   0.44050   0.01267  Uiso   1.00
H21    H     0.63190   0.74460   0.51360   0.01267  Uiso   1.00
H22    H     0.53490   0.85560   0.58420   0.01267  Uiso   1.00
H23    H     0.59710   0.85060   0.54260   0.01267  Uiso   1.00
H24    H     0.50600   0.81730   0.49120   0.01267  Uiso   1.00
H25    H     0.51890   0.80850   0.64220   0.01267  Uiso   1.00
H26    H     0.45420   0.72250   0.59760   0.01267  Uiso   1.00
H27    H     0.53940   0.73490   0.65330   0.01267  Uiso   1.00
H28    H     0.43210   0.59150   0.67270   0.01267  Uiso   1.00
H29    H     0.44050   0.57230   0.75070   0.01267  Uiso   1.00
H30    H     0.51360   0.63190   0.74460   0.01267  Uiso   1.00
H31    H     0.58420   0.53490   0.85560   0.01267  Uiso   1.00
H32    H     0.54260   0.59710   0.85060   0.01267  Uiso   1.00
H33    H     0.49120   0.50600   0.81730   0.01267  Uiso   1.00
H34    H     0.64220   0.51890   0.80850   0.01267  Uiso   1.00
H35    H     0.59760   0.45420   0.72250   0.01267  Uiso   1.00
H36    H     0.65330   0.53940   0.73490   0.01267  Uiso   1.00
H37    H     0.67270   0.43210   0.59150   0.01267  Uiso   1.00
H38    H     0.75070   0.44050   0.57230   0.01267  Uiso   1.00
H39    H     0.74460   0.51360   0.63190   0.01267  Uiso   1.00
H40    H     0.85560   0.58420   0.53490   0.01267  Uiso   1.00
H41    H     0.85060   0.54260   0.59710   0.01267  Uiso   1.00
H42    H     0.81730   0.49120   0.50600   0.01267  Uiso   1.00
H43    H     0.80850   0.64220   0.51890   0.01267  Uiso   1.00
H44    H     0.72250   0.59760   0.45420   0.01267  Uiso   1.00
H45    H     0.73490   0.65330   0.53940   0.01267  Uiso   1.00
H46    H     0.40850   0.32730   0.56790   0.01267  Uiso   1.00
H47    H     0.42770   0.24930   0.55950   0.01267  Uiso   1.00
H48    H     0.36810   0.25540   0.48640   0.01267  Uiso   1.00
H49    H     0.46510   0.14440   0.41580   0.01267  Uiso   1.00
H50    H     0.40290   0.14940   0.45740   0.01267  Uiso   1.00
H51    H     0.49400   0.18270   0.50880   0.01267  Uiso   1.00
H52    H     0.48110   0.19150   0.35780   0.01267  Uiso   1.00
H53    H     0.54580   0.27750   0.40240   0.01267  Uiso   1.00
H54    H     0.46060   0.26510   0.34670   0.01267  Uiso   1.00
H55    H     0.56790   0.40850   0.32730   0.01267  Uiso   1.00
H56    H     0.55950   0.42770   0.24930   0.01267  Uiso   1.00
H57    H     0.48640   0.36810   0.25540   0.01267  Uiso   1.00
H58    H     0.41580   0.46510   0.14440   0.01267  Uiso   1.00
H59    H     0.45740   0.40290   0.14940   0.01267  Uiso   1.00
H60    H     0.50880   0.49400   0.18270   0.01267  Uiso   1.00
H61    H     0.35780   0.48110   0.19150   0.01267  Uiso   1.00
H62    H     0.40240   0.54580   0.27750   0.01267  Uiso   1.00
H63    H     0.34670   0.46060   0.26510   0.01267  Uiso   1.00
H64    H     0.32730   0.56790   0.40850   0.01267  Uiso   1.00
H65    H     0.24930   0.55950   0.42770   0.01267  Uiso   1.00
H66    H     0.25540   0.48640   0.36810   0.01267  Uiso   1.00
H67    H     0.14440   0.41580   0.46510   0.01267  Uiso   1.00
H68    H     0.14940   0.45740   0.40290   0.01267  Uiso   1.00
H69    H     0.18270   0.50880   0.49400   0.01267  Uiso   1.00
H70    H     0.19150   0.35780   0.48110   0.01267  Uiso   1.00
H71    H     0.27750   0.40240   0.54580   0.01267  Uiso   1.00
H72    H     0.26510   0.34670   0.46060   0.01267  Uiso   1.00
C55    C     0.51600   0.68200   0.49200   0.01267  Uiso   1.00
C56    C     0.58400   0.71600   0.46800   0.01267  Uiso   1.00
C57    C     0.54460   0.82410   0.54060   0.01267  Uiso   1.00
C58    C     0.51000   0.75300   0.61600   0.01267  Uiso   1.00
C59    C     0.49200   0.51600   0.68200   0.01267  Uiso   1.00
C60    C     0.46800   0.58400   0.71600   0.01267  Uiso   1.00
C61    C     0.54060   0.54460   0.82410   0.01267  Uiso   1.00
C62    C     0.61600   0.51000   0.75300   0.01267  Uiso   1.00
C63    C     0.68200   0.49200   0.51600   0.01267  Uiso   1.00
C64    C     0.71600   0.46800   0.58400   0.01267  Uiso   1.00
C65    C     0.82410   0.54060   0.54460   0.01267  Uiso   1.00
C66    C     0.75300   0.61600   0.51000   0.01267  Uiso   1.00
C67    C     0.48400   0.31800   0.50800   0.01267  Uiso   1.00
C68    C     0.41600   0.28400   0.53200   0.01267  Uiso   1.00
C69    C     0.45540   0.17590   0.45940   0.01267  Uiso   1.00
C70    C     0.49000   0.24700   0.38400   0.01267  Uiso   1.00
C71    C     0.50800   0.48400   0.31800   0.01267  Uiso   1.00
C72    C     0.53200   0.41600   0.28400   0.01267  Uiso   1.00
C73    C     0.45940   0.45540   0.17590   0.01267  Uiso   1.00
C74    C     0.38400   0.49000   0.24700   0.01267  Uiso   1.00
C75    C     0.31800   0.50800   0.48400   0.01267  Uiso   1.00
C76    C     0.28400   0.53200   0.41600   0.01267  Uiso   1.00
C77    C     0.17590   0.45940   0.45540   0.01267  Uiso   1.00
C78    C     0.24700   0.38400   0.49000   0.01267  Uiso   1.00
N73    N     0.53770   0.74460   0.54630   0.01267  Uiso   1.00
N74    N     0.54630   0.53770   0.74460   0.01267  Uiso   1.00
N75    N     0.74460   0.54630   0.53770   0.01267  Uiso   1.00
N76    N     0.46230   0.25540   0.45370   0.01267  Uiso   1.00
N77    N     0.45370   0.46230   0.25540   0.01267  Uiso   1.00
N78    N     0.25540   0.45370   0.46230   0.01267  Uiso   1.00
O1     O     0.51740   0.62410   0.51850   0.01267  Uiso   1.00
O2     O     0.51850   0.51740   0.62410   0.01267  Uiso   1.00
O3     O     0.62410   0.51850   0.51740   0.01267  Uiso   1.00
O4     O     0.48260   0.37590   0.48150   0.01267  Uiso   1.00
O5     O     0.48150   0.48260   0.37590   0.01267  Uiso   1.00
O6     O     0.37590   0.48150   0.48260   0.01267  Uiso   1.00
