data_TEDHAN_clean
_audit_creation_date              2014-07-02
_audit_creation_method            'Materials Studio'
_symmetry_space_group_name_H-M    'P1'
_symmetry_Int_Tables_number       1
_symmetry_cell_setting            triclinic
loop_
_symmetry_equiv_pos_as_xyz
  x,y,z
_cell_length_a                    18.2694
_cell_length_b                    18.2694
_cell_length_c                    18.2694
_cell_angle_alpha                 105.0250
_cell_angle_beta                  105.0250
_cell_angle_gamma                 105.0250
loop_
_atom_site_label
_atom_site_type_symbol
_atom_site_fract_x
_atom_site_fract_y
_atom_site_fract_z
_atom_site_U_iso_or_equiv
_atom_site_adp_type
_atom_site_occupancy
Zn1    Zn    0.48785   0.05546   0.59880   0.01267  Uiso   1.00
Zn2    Zn    0.59880   0.48785   0.05546   0.01267  Uiso   1.00
Zn3    Zn    0.05546   0.59880   0.48785   0.01267  Uiso   1.00
Zn4    Zn    0.44454   0.01215   0.90120   0.01267  Uiso   1.00
Zn5    Zn    0.01215   0.90120   0.44454   0.01267  Uiso   1.00
Zn6    Zn    0.90120   0.44454   0.01215   0.01267  Uiso   1.00
Zn7    Zn    0.51215   0.94454   0.40120   0.01267  Uiso   1.00
Zn8    Zn    0.40120   0.51215   0.94454   0.01267  Uiso   1.00
Zn9    Zn    0.94454   0.40120   0.51215   0.01267  Uiso   1.00
Zn10   Zn    0.55546   0.98785   0.09880   0.01267  Uiso   1.00
Zn11   Zn    0.98785   0.09880   0.55546   0.01267  Uiso   1.00
Zn12   Zn    0.09880   0.55546   0.98785   0.01267  Uiso   1.00
H1     H     0.31760   0.01400   0.64800   0.01267  Uiso   1.00
H2     H     0.64800   0.31760   0.01400   0.01267  Uiso   1.00
H3     H     0.01400   0.64800   0.31760   0.01267  Uiso   1.00
H4     H     0.48600   0.18240   0.85200   0.01267  Uiso   1.00
H5     H     0.18240   0.85200   0.48600   0.01267  Uiso   1.00
H6     H     0.85200   0.48600   0.18240   0.01267  Uiso   1.00
H7     H     0.68240   0.98600   0.35200   0.01267  Uiso   1.00
H8     H     0.35200   0.68240   0.98600   0.01267  Uiso   1.00
H9     H     0.98600   0.35200   0.68240   0.01267  Uiso   1.00
H10    H     0.51400   0.81760   0.14800   0.01267  Uiso   1.00
H11    H     0.81760   0.14800   0.51400   0.01267  Uiso   1.00
H12    H     0.14800   0.51400   0.81760   0.01267  Uiso   1.00
H13    H     0.28355   0.21645   0.75000   0.01267  Uiso   1.00
H14    H     0.75000   0.28355   0.21645   0.01267  Uiso   1.00
H15    H     0.21645   0.75000   0.28355   0.01267  Uiso   1.00
H16    H     0.71645   0.78355   0.25000   0.01267  Uiso   1.00
H17    H     0.25000   0.71645   0.78355   0.01267  Uiso   1.00
H18    H     0.78355   0.25000   0.71645   0.01267  Uiso   1.00
C1     C     0.20600   0.07740   0.63020   0.01267  Uiso   1.00
C2     C     0.33540   0.06320   0.68990   0.01267  Uiso   1.00
C3     C     0.28700   0.10900   0.69130   0.01267  Uiso   1.00
C4     C     0.63020   0.20600   0.07740   0.01267  Uiso   1.00
C5     C     0.68990   0.33540   0.06320   0.01267  Uiso   1.00
C6     C     0.69130   0.28700   0.10900   0.01267  Uiso   1.00
C7     C     0.07740   0.63020   0.20600   0.01267  Uiso   1.00
C8     C     0.06320   0.68990   0.33540   0.01267  Uiso   1.00
C9     C     0.10900   0.69130   0.28700   0.01267  Uiso   1.00
C10    C     0.42260   0.29400   0.86980   0.01267  Uiso   1.00
C11    C     0.43680   0.16460   0.81010   0.01267  Uiso   1.00
C12    C     0.39100   0.21300   0.80870   0.01267  Uiso   1.00
C13    C     0.29400   0.86980   0.42260   0.01267  Uiso   1.00
C14    C     0.16460   0.81010   0.43680   0.01267  Uiso   1.00
C15    C     0.21300   0.80870   0.39100   0.01267  Uiso   1.00
C16    C     0.86980   0.42260   0.29400   0.01267  Uiso   1.00
C17    C     0.81010   0.43680   0.16460   0.01267  Uiso   1.00
C18    C     0.80870   0.39100   0.21300   0.01267  Uiso   1.00
C19    C     0.79400   0.92260   0.36980   0.01267  Uiso   1.00
C20    C     0.66460   0.93680   0.31010   0.01267  Uiso   1.00
C21    C     0.71300   0.89100   0.30870   0.01267  Uiso   1.00
C22    C     0.36980   0.79400   0.92260   0.01267  Uiso   1.00
C23    C     0.31010   0.66460   0.93680   0.01267  Uiso   1.00
C24    C     0.30870   0.71300   0.89100   0.01267  Uiso   1.00
C25    C     0.92260   0.36980   0.79400   0.01267  Uiso   1.00
C26    C     0.93680   0.31010   0.66460   0.01267  Uiso   1.00
C27    C     0.89100   0.30870   0.71300   0.01267  Uiso   1.00
C28    C     0.57740   0.70600   0.13020   0.01267  Uiso   1.00
C29    C     0.56320   0.83540   0.18990   0.01267  Uiso   1.00
C30    C     0.60900   0.78700   0.19130   0.01267  Uiso   1.00
C31    C     0.70600   0.13020   0.57740   0.01267  Uiso   1.00
C32    C     0.83540   0.18990   0.56320   0.01267  Uiso   1.00
C33    C     0.78700   0.19130   0.60900   0.01267  Uiso   1.00
C34    C     0.13020   0.57740   0.70600   0.01267  Uiso   1.00
C35    C     0.18990   0.56320   0.83540   0.01267  Uiso   1.00
C36    C     0.19130   0.60900   0.78700   0.01267  Uiso   1.00
C37    C     0.46225   0.03775   0.75000   0.01267  Uiso   1.00
C38    C     0.41095   0.08905   0.75000   0.01267  Uiso   1.00
C39    C     0.31565   0.18435   0.75000   0.01267  Uiso   1.00
C40    C     0.75000   0.46225   0.03775   0.01267  Uiso   1.00
C41    C     0.75000   0.41095   0.08905   0.01267  Uiso   1.00
C42    C     0.75000   0.31565   0.18435   0.01267  Uiso   1.00
C43    C     0.03775   0.75000   0.46225   0.01267  Uiso   1.00
C44    C     0.08905   0.75000   0.41095   0.01267  Uiso   1.00
C45    C     0.18435   0.75000   0.31565   0.01267  Uiso   1.00
C46    C     0.53775   0.96225   0.25000   0.01267  Uiso   1.00
C47    C     0.58905   0.91095   0.25000   0.01267  Uiso   1.00
C48    C     0.68435   0.81565   0.25000   0.01267  Uiso   1.00
C49    C     0.25000   0.53775   0.96225   0.01267  Uiso   1.00
C50    C     0.25000   0.58905   0.91095   0.01267  Uiso   1.00
C51    C     0.25000   0.68435   0.81565   0.01267  Uiso   1.00
C52    C     0.96225   0.25000   0.53775   0.01267  Uiso   1.00
C53    C     0.91095   0.25000   0.58905   0.01267  Uiso   1.00
C54    C     0.81565   0.25000   0.68435   0.01267  Uiso   1.00
N1     N     0.08919   0.07223   0.56489   0.01267  Uiso   1.00
N2     N     0.09546   0.99986   0.53730   0.01267  Uiso   1.00
N3     N     0.16890   0.00402   0.57934   0.01267  Uiso   1.00
N4     N     0.15874   0.12110   0.62398   0.01267  Uiso   1.00
N5     N     0.49289   0.02001   0.69530   0.01267  Uiso   1.00
N6     N     0.53510   0.97150   0.71780   0.01267  Uiso   1.00
N7     N     0.56489   0.08919   0.07223   0.01267  Uiso   1.00
N8     N     0.53730   0.09546   0.99986   0.01267  Uiso   1.00
N9     N     0.57934   0.16890   0.00402   0.01267  Uiso   1.00
N10    N     0.62398   0.15874   0.12110   0.01267  Uiso   1.00
N11    N     0.69530   0.49289   0.02001   0.01267  Uiso   1.00
N12    N     0.71780   0.53510   0.97150   0.01267  Uiso   1.00
N13    N     0.07223   0.56489   0.08919   0.01267  Uiso   1.00
N14    N     0.99986   0.53730   0.09546   0.01267  Uiso   1.00
N15    N     0.00402   0.57934   0.16890   0.01267  Uiso   1.00
N16    N     0.12110   0.62398   0.15874   0.01267  Uiso   1.00
N17    N     0.02001   0.69530   0.49289   0.01267  Uiso   1.00
N18    N     0.97150   0.71780   0.53510   0.01267  Uiso   1.00
N19    N     0.42777   0.41081   0.93511   0.01267  Uiso   1.00
N20    N     0.50014   0.40454   0.96270   0.01267  Uiso   1.00
N21    N     0.49598   0.33110   0.92066   0.01267  Uiso   1.00
N22    N     0.37890   0.34126   0.87602   0.01267  Uiso   1.00
N23    N     0.47999   0.00711   0.80470   0.01267  Uiso   1.00
N24    N     0.52850   0.96490   0.78220   0.01267  Uiso   1.00
N25    N     0.41081   0.93511   0.42777   0.01267  Uiso   1.00
N26    N     0.40454   0.96270   0.50014   0.01267  Uiso   1.00
N27    N     0.33110   0.92066   0.49598   0.01267  Uiso   1.00
N28    N     0.34126   0.87602   0.37890   0.01267  Uiso   1.00
N29    N     0.00711   0.80470   0.47999   0.01267  Uiso   1.00
N30    N     0.96490   0.78220   0.52850   0.01267  Uiso   1.00
N31    N     0.93511   0.42777   0.41081   0.01267  Uiso   1.00
N32    N     0.96270   0.50014   0.40454   0.01267  Uiso   1.00
N33    N     0.92066   0.49598   0.33110   0.01267  Uiso   1.00
N34    N     0.87602   0.37890   0.34126   0.01267  Uiso   1.00
N35    N     0.80470   0.47999   0.00711   0.01267  Uiso   1.00
N36    N     0.78220   0.52850   0.96490   0.01267  Uiso   1.00
N37    N     0.91081   0.92777   0.43511   0.01267  Uiso   1.00
N38    N     0.90454   0.00014   0.46270   0.01267  Uiso   1.00
N39    N     0.83110   0.99598   0.42066   0.01267  Uiso   1.00
N40    N     0.84126   0.87890   0.37602   0.01267  Uiso   1.00
N41    N     0.50711   0.97999   0.30470   0.01267  Uiso   1.00
N42    N     0.46490   0.02850   0.28220   0.01267  Uiso   1.00
N43    N     0.43511   0.91081   0.92777   0.01267  Uiso   1.00
N44    N     0.46270   0.90454   0.00014   0.01267  Uiso   1.00
N45    N     0.42066   0.83110   0.99598   0.01267  Uiso   1.00
N46    N     0.37602   0.84126   0.87890   0.01267  Uiso   1.00
N47    N     0.30470   0.50711   0.97999   0.01267  Uiso   1.00
N48    N     0.28220   0.46490   0.02850   0.01267  Uiso   1.00
N49    N     0.92777   0.43511   0.91081   0.01267  Uiso   1.00
N50    N     0.00014   0.46270   0.90454   0.01267  Uiso   1.00
N51    N     0.99598   0.42066   0.83110   0.01267  Uiso   1.00
N52    N     0.87890   0.37602   0.84126   0.01267  Uiso   1.00
N53    N     0.97999   0.30470   0.50711   0.01267  Uiso   1.00
N54    N     0.02850   0.28220   0.46490   0.01267  Uiso   1.00
N55    N     0.57223   0.58919   0.06489   0.01267  Uiso   1.00
N56    N     0.49986   0.59546   0.03730   0.01267  Uiso   1.00
N57    N     0.50402   0.66890   0.07934   0.01267  Uiso   1.00
N58    N     0.62110   0.65874   0.12398   0.01267  Uiso   1.00
N59    N     0.52001   0.99289   0.19530   0.01267  Uiso   1.00
N60    N     0.47150   0.03510   0.21780   0.01267  Uiso   1.00
N61    N     0.58919   0.06489   0.57223   0.01267  Uiso   1.00
N62    N     0.59546   0.03730   0.49986   0.01267  Uiso   1.00
N63    N     0.66890   0.07934   0.50402   0.01267  Uiso   1.00
N64    N     0.65874   0.12398   0.62110   0.01267  Uiso   1.00
N65    N     0.99289   0.19530   0.52001   0.01267  Uiso   1.00
N66    N     0.03510   0.21780   0.47150   0.01267  Uiso   1.00
N67    N     0.06489   0.57223   0.58919   0.01267  Uiso   1.00
N68    N     0.03730   0.49986   0.59546   0.01267  Uiso   1.00
N69    N     0.07934   0.50402   0.66890   0.01267  Uiso   1.00
N70    N     0.12398   0.62110   0.65874   0.01267  Uiso   1.00
N71    N     0.19530   0.52001   0.99289   0.01267  Uiso   1.00
N72    N     0.21780   0.47150   0.03510   0.01267  Uiso   1.00
Cl1    Cl    0.46784   0.17041   0.60994   0.01267  Uiso   1.00
Cl2    Cl    0.60994   0.46784   0.17041   0.01267  Uiso   1.00
Cl3    Cl    0.17041   0.60994   0.46784   0.01267  Uiso   1.00
Cl4    Cl    0.32959   0.03216   0.89006   0.01267  Uiso   1.00
Cl5    Cl    0.03216   0.89006   0.32959   0.01267  Uiso   1.00
Cl6    Cl    0.89006   0.32959   0.03216   0.01267  Uiso   1.00
Cl7    Cl    0.53216   0.82959   0.39006   0.01267  Uiso   1.00
Cl8    Cl    0.39006   0.53216   0.82959   0.01267  Uiso   1.00
Cl9    Cl    0.82959   0.39006   0.53216   0.01267  Uiso   1.00
Cl10   Cl    0.67041   0.96784   0.10994   0.01267  Uiso   1.00
Cl11   Cl    0.96784   0.10994   0.67041   0.01267  Uiso   1.00
Cl12   Cl    0.10994   0.67041   0.96784   0.01267  Uiso   1.00
