data_TEDLUK_clean
_audit_creation_date              2014-07-02
_audit_creation_method            'Materials Studio'
_symmetry_space_group_name_H-M    'P1'
_symmetry_Int_Tables_number       1
_symmetry_cell_setting            triclinic
loop_
_symmetry_equiv_pos_as_xyz
  x,y,z
_cell_length_a                    11.3870
_cell_length_b                    14.6914
_cell_length_c                    14.6914
_cell_angle_alpha                 119.7490
_cell_angle_beta                  95.3221
_cell_angle_gamma                 95.3221
loop_
_atom_site_label
_atom_site_type_symbol
_atom_site_fract_x
_atom_site_fract_y
_atom_site_fract_z
_atom_site_U_iso_or_equiv
_atom_site_adp_type
_atom_site_occupancy
Zn1    Zn    0.59577   0.16522   0.73360   0.01267  Uiso   1.00
Zn2    Zn    0.90423   0.26640   0.83478   0.01267  Uiso   1.00
Zn3    Zn    0.40423   0.83478   0.26640   0.01267  Uiso   1.00
Zn4    Zn    0.09577   0.73360   0.16522   0.01267  Uiso   1.00
H1     H     0.59120   0.44100   0.67140   0.01267  Uiso   1.00
H2     H     0.60200   0.52370   0.57490   0.01267  Uiso   1.00
H3     H     0.62780   0.24890   0.31490   0.01267  Uiso   1.00
H4     H     0.61240   0.16360   0.41080   0.01267  Uiso   1.00
H5     H     0.50830   0.26690   0.04250   0.01267  Uiso   1.00
H6     H     0.47910   0.33470   0.21750   0.01267  Uiso   1.00
H7     H     0.82250   0.47240   0.31820   0.01267  Uiso   1.00
H8     H     0.85170   0.40310   0.14350   0.01267  Uiso   1.00
H9     H     0.37390   0.04490   0.54750   0.01267  Uiso   1.00
H10    H     0.38030   0.09910   0.83470   0.01267  Uiso   1.00
H11    H     0.16610   0.92090   0.46330   0.01267  Uiso   1.00
H12    H     0.10110   0.89620   0.54020   0.01267  Uiso   1.00
H13    H     0.03460   0.06300   0.61160   0.01267  Uiso   1.00
H14    H     0.09550   0.08340   0.53040   0.01267  Uiso   1.00
H15    H     0.19040   0.00550   0.73910   0.01267  Uiso   1.00
H16    H     0.90880   0.32860   0.55900   0.01267  Uiso   1.00
H17    H     0.89800   0.42510   0.47630   0.01267  Uiso   1.00
H18    H     0.87220   0.68510   0.75110   0.01267  Uiso   1.00
H19    H     0.88760   0.58920   0.83640   0.01267  Uiso   1.00
H20    H     0.99170   0.95750   0.73310   0.01267  Uiso   1.00
H21    H     0.02090   0.78250   0.66530   0.01267  Uiso   1.00
H22    H     0.67750   0.68180   0.52760   0.01267  Uiso   1.00
H23    H     0.64830   0.85650   0.59690   0.01267  Uiso   1.00
H24    H     0.12610   0.45250   0.95510   0.01267  Uiso   1.00
H25    H     0.11970   0.16530   0.90090   0.01267  Uiso   1.00
H26    H     0.33390   0.53670   0.07910   0.01267  Uiso   1.00
H27    H     0.39890   0.45980   0.10380   0.01267  Uiso   1.00
H28    H     0.46540   0.38840   0.93700   0.01267  Uiso   1.00
H29    H     0.40450   0.46960   0.91660   0.01267  Uiso   1.00
H30    H     0.30960   0.26090   0.99450   0.01267  Uiso   1.00
H31    H     0.40880   0.55900   0.32860   0.01267  Uiso   1.00
H32    H     0.39800   0.47630   0.42510   0.01267  Uiso   1.00
H33    H     0.37220   0.75110   0.68510   0.01267  Uiso   1.00
H34    H     0.38760   0.83640   0.58920   0.01267  Uiso   1.00
H35    H     0.49170   0.73310   0.95750   0.01267  Uiso   1.00
H36    H     0.52090   0.66530   0.78250   0.01267  Uiso   1.00
H37    H     0.17750   0.52760   0.68180   0.01267  Uiso   1.00
H38    H     0.14830   0.59690   0.85650   0.01267  Uiso   1.00
H39    H     0.62610   0.95510   0.45250   0.01267  Uiso   1.00
H40    H     0.61970   0.90090   0.16530   0.01267  Uiso   1.00
H41    H     0.83390   0.07910   0.53670   0.01267  Uiso   1.00
H42    H     0.89890   0.10380   0.45980   0.01267  Uiso   1.00
H43    H     0.96540   0.93700   0.38840   0.01267  Uiso   1.00
H44    H     0.90450   0.91660   0.46960   0.01267  Uiso   1.00
H45    H     0.80960   0.99450   0.26090   0.01267  Uiso   1.00
H46    H     0.09120   0.67140   0.44100   0.01267  Uiso   1.00
H47    H     0.10200   0.57490   0.52370   0.01267  Uiso   1.00
H48    H     0.12780   0.31490   0.24890   0.01267  Uiso   1.00
H49    H     0.11240   0.41080   0.16360   0.01267  Uiso   1.00
H50    H     0.00830   0.04250   0.26690   0.01267  Uiso   1.00
H51    H     0.97910   0.21750   0.33470   0.01267  Uiso   1.00
H52    H     0.32250   0.31820   0.47240   0.01267  Uiso   1.00
H53    H     0.35170   0.14350   0.40310   0.01267  Uiso   1.00
H54    H     0.87390   0.54750   0.04490   0.01267  Uiso   1.00
H55    H     0.88030   0.83470   0.09910   0.01267  Uiso   1.00
H56    H     0.66610   0.46330   0.92090   0.01267  Uiso   1.00
H57    H     0.60110   0.54020   0.89620   0.01267  Uiso   1.00
H58    H     0.53460   0.61160   0.06300   0.01267  Uiso   1.00
H59    H     0.59550   0.53040   0.08340   0.01267  Uiso   1.00
H60    H     0.69040   0.73910   0.00550   0.01267  Uiso   1.00
C1     C     0.60210   0.29370   0.55210   0.01267  Uiso   1.00
C2     C     0.59850   0.40222   0.59998   0.01267  Uiso   1.00
C3     C     0.60570   0.45153   0.54267   0.01267  Uiso   1.00
C4     C     0.61860   0.39492   0.43648   0.01267  Uiso   1.00
C5     C     0.62060   0.28686   0.38634   0.01267  Uiso   1.00
C6     C     0.61190   0.23643   0.44397   0.01267  Uiso   1.00
C7     C     0.59730   0.23841   0.61359   0.01267  Uiso   1.00
C8     C     0.68360   0.32811   0.07549   0.01267  Uiso   1.00
C9     C     0.57160   0.30762   0.09758   0.01267  Uiso   1.00
C10    C     0.55400   0.34815   0.20225   0.01267  Uiso   1.00
C11    C     0.64830   0.40821   0.28319   0.01267  Uiso   1.00
C12    C     0.75980   0.43045   0.26275   0.01267  Uiso   1.00
C13    C     0.77670   0.38936   0.15824   0.01267  Uiso   1.00
C14    C     0.70390   0.28455   0.96245   0.01267  Uiso   1.00
C15    C     0.35280   0.04812   0.60868   0.01267  Uiso   1.00
C16    C     0.35420   0.07630   0.76370   0.01267  Uiso   1.00
C17    C     0.14170   0.95266   0.53274   0.01267  Uiso   1.00
C18    C     0.05610   0.02881   0.54099   0.01267  Uiso   1.00
C19    C     0.89790   0.44790   0.70630   0.01267  Uiso   1.00
C20    C     0.90150   0.40002   0.59778   0.01267  Uiso   1.00
C21    C     0.89430   0.45733   0.54847   0.01267  Uiso   1.00
C22    C     0.88140   0.56352   0.60508   0.01267  Uiso   1.00
C23    C     0.87940   0.61366   0.71314   0.01267  Uiso   1.00
C24    C     0.88810   0.55603   0.76357   0.01267  Uiso   1.00
C25    C     0.90270   0.38641   0.76159   0.01267  Uiso   1.00
C26    C     0.81640   0.92451   0.67189   0.01267  Uiso   1.00
C27    C     0.92840   0.90242   0.69238   0.01267  Uiso   1.00
C28    C     0.94600   0.79775   0.65185   0.01267  Uiso   1.00
C29    C     0.85170   0.71681   0.59179   0.01267  Uiso   1.00
C30    C     0.74020   0.73725   0.56955   0.01267  Uiso   1.00
C31    C     0.72330   0.84176   0.61064   0.01267  Uiso   1.00
C32    C     0.79610   0.03755   0.71545   0.01267  Uiso   1.00
C33    C     0.14720   0.39132   0.95188   0.01267  Uiso   1.00
C34    C     0.14580   0.23630   0.92370   0.01267  Uiso   1.00
C35    C     0.35830   0.46726   0.04734   0.01267  Uiso   1.00
C36    C     0.44390   0.45901   0.97119   0.01267  Uiso   1.00
C37    C     0.39790   0.70630   0.44790   0.01267  Uiso   1.00
C38    C     0.40150   0.59778   0.40002   0.01267  Uiso   1.00
C39    C     0.39430   0.54847   0.45733   0.01267  Uiso   1.00
C40    C     0.38140   0.60508   0.56352   0.01267  Uiso   1.00
C41    C     0.37940   0.71314   0.61366   0.01267  Uiso   1.00
C42    C     0.38810   0.76357   0.55603   0.01267  Uiso   1.00
C43    C     0.40270   0.76159   0.38641   0.01267  Uiso   1.00
C44    C     0.31640   0.67189   0.92451   0.01267  Uiso   1.00
C45    C     0.42840   0.69238   0.90242   0.01267  Uiso   1.00
C46    C     0.44600   0.65185   0.79775   0.01267  Uiso   1.00
C47    C     0.35170   0.59179   0.71681   0.01267  Uiso   1.00
C48    C     0.24020   0.56955   0.73725   0.01267  Uiso   1.00
C49    C     0.22330   0.61064   0.84176   0.01267  Uiso   1.00
C50    C     0.29610   0.71545   0.03755   0.01267  Uiso   1.00
C51    C     0.64720   0.95188   0.39132   0.01267  Uiso   1.00
C52    C     0.64580   0.92370   0.23630   0.01267  Uiso   1.00
C53    C     0.85830   0.04734   0.46726   0.01267  Uiso   1.00
C54    C     0.94390   0.97119   0.45901   0.01267  Uiso   1.00
C55    C     0.10210   0.55210   0.29370   0.01267  Uiso   1.00
C56    C     0.09850   0.59998   0.40222   0.01267  Uiso   1.00
C57    C     0.10570   0.54267   0.45153   0.01267  Uiso   1.00
C58    C     0.11860   0.43648   0.39492   0.01267  Uiso   1.00
C59    C     0.12060   0.38634   0.28686   0.01267  Uiso   1.00
C60    C     0.11190   0.44397   0.23643   0.01267  Uiso   1.00
C61    C     0.09730   0.61359   0.23841   0.01267  Uiso   1.00
C62    C     0.18360   0.07549   0.32811   0.01267  Uiso   1.00
C63    C     0.07160   0.09758   0.30762   0.01267  Uiso   1.00
C64    C     0.05400   0.20225   0.34815   0.01267  Uiso   1.00
C65    C     0.14830   0.28319   0.40821   0.01267  Uiso   1.00
C66    C     0.25980   0.26275   0.43045   0.01267  Uiso   1.00
C67    C     0.27670   0.15824   0.38936   0.01267  Uiso   1.00
C68    C     0.20390   0.96245   0.28455   0.01267  Uiso   1.00
C69    C     0.85280   0.60868   0.04812   0.01267  Uiso   1.00
C70    C     0.85420   0.76370   0.07630   0.01267  Uiso   1.00
C71    C     0.64170   0.53274   0.95266   0.01267  Uiso   1.00
C72    C     0.55610   0.54099   0.02881   0.01267  Uiso   1.00
N1     N     0.42400   0.09408   0.70212   0.01267  Uiso   1.00
N2     N     0.24740   0.02446   0.71454   0.01267  Uiso   1.00
N3     N     0.24820   0.00771   0.61549   0.01267  Uiso   1.00
N4     N     0.07600   0.29788   0.90592   0.01267  Uiso   1.00
N5     N     0.25260   0.28546   0.97554   0.01267  Uiso   1.00
N6     N     0.25180   0.38451   0.99229   0.01267  Uiso   1.00
N7     N     0.57600   0.90592   0.29788   0.01267  Uiso   1.00
N8     N     0.75260   0.97554   0.28546   0.01267  Uiso   1.00
N9     N     0.75180   0.99229   0.38451   0.01267  Uiso   1.00
N10    N     0.92400   0.70212   0.09408   0.01267  Uiso   1.00
N11    N     0.74740   0.71454   0.02446   0.01267  Uiso   1.00
N12    N     0.74820   0.61549   0.00771   0.01267  Uiso   1.00
O1     O     0.58460   0.13953   0.56747   0.01267  Uiso   1.00
O2     O     0.60830   0.29332   0.71468   0.01267  Uiso   1.00
O3     O     0.63220   0.45607   0.38923   0.01267  Uiso   1.00
O4     O     0.61530   0.23137   0.89071   0.01267  Uiso   1.00
O5     O     0.80670   0.30617   0.94863   0.01267  Uiso   1.00
O6     O     0.91540   0.43253   0.86047   0.01267  Uiso   1.00
O7     O     0.89170   0.28532   0.70668   0.01267  Uiso   1.00
O8     O     0.86780   0.61077   0.54393   0.01267  Uiso   1.00
O9     O     0.88470   0.10929   0.76863   0.01267  Uiso   1.00
O10    O     0.69330   0.05137   0.69383   0.01267  Uiso   1.00
O11    O     0.41540   0.86047   0.43253   0.01267  Uiso   1.00
O12    O     0.39170   0.70668   0.28532   0.01267  Uiso   1.00
O13    O     0.36780   0.54393   0.61077   0.01267  Uiso   1.00
O14    O     0.38470   0.76863   0.10929   0.01267  Uiso   1.00
O15    O     0.19330   0.69383   0.05137   0.01267  Uiso   1.00
O16    O     0.08460   0.56747   0.13953   0.01267  Uiso   1.00
O17    O     0.10830   0.71468   0.29332   0.01267  Uiso   1.00
O18    O     0.13220   0.38923   0.45607   0.01267  Uiso   1.00
O19    O     0.11530   0.89071   0.23137   0.01267  Uiso   1.00
O20    O     0.30670   0.94863   0.30617   0.01267  Uiso   1.00
