data_TEQTEQ_clean
_audit_creation_date              2014-07-02
_audit_creation_method            'Materials Studio'
_symmetry_space_group_name_H-M    'P1'
_symmetry_Int_Tables_number       1
_symmetry_cell_setting            triclinic
loop_
_symmetry_equiv_pos_as_xyz
  x,y,z
_cell_length_a                    9.1726
_cell_length_b                    16.7480
_cell_length_c                    18.9560
_cell_angle_alpha                 90.0000
_cell_angle_beta                  90.0000
_cell_angle_gamma                 102.1300
loop_
_atom_site_label
_atom_site_type_symbol
_atom_site_fract_x
_atom_site_fract_y
_atom_site_fract_z
_atom_site_U_iso_or_equiv
_atom_site_adp_type
_atom_site_occupancy
Mn1    Mn    0.81837   0.97882   0.56213   0.01267  Uiso   1.00
Mn2    Mn    0.18163   0.52118   0.06213   0.01267  Uiso   1.00
Mn3    Mn    0.18163   0.02118   0.43788   0.01267  Uiso   1.00
Mn4    Mn    0.81837   0.47882   0.93787   0.01267  Uiso   1.00
H1     H     0.17690   0.34030   0.11610   0.01267  Uiso   1.00
H2     H     0.08690   0.24880   0.20360   0.01267  Uiso   1.00
H3     H     0.84070   0.40400   0.26990   0.01267  Uiso   1.00
H4     H     0.93900   0.48970   0.18120   0.01267  Uiso   1.00
H5     H     0.58910   0.16080   0.46470   0.01267  Uiso   1.00
H6     H     0.55690   0.23840   0.42670   0.01267  Uiso   1.00
H7     H     0.66720   0.24810   0.49090   0.01267  Uiso   1.00
H8     H     0.41950   0.55530   0.93320   0.01267  Uiso   1.00
H9     H     0.50410   0.64880   0.84650   0.01267  Uiso   1.00
H10    H     0.23740   0.78880   0.92380   0.01267  Uiso   1.00
H11    H     0.16140   0.69210   0.00800   0.01267  Uiso   1.00
H12    H     0.42240   0.02260   0.75400   0.01267  Uiso   1.00
H13    H     0.26000   0.96940   0.75740   0.01267  Uiso   1.00
H14    H     0.34770   0.97920   0.68580   0.01267  Uiso   1.00
H15    H     0.82310   0.15970   0.61610   0.01267  Uiso   1.00
H16    H     0.91310   0.25120   0.70360   0.01267  Uiso   1.00
H17    H     0.15930   0.09600   0.76990   0.01267  Uiso   1.00
H18    H     0.06100   0.01030   0.68120   0.01267  Uiso   1.00
H19    H     0.41090   0.33920   0.96470   0.01267  Uiso   1.00
H20    H     0.44310   0.26160   0.92670   0.01267  Uiso   1.00
H21    H     0.33280   0.25190   0.99090   0.01267  Uiso   1.00
H22    H     0.58050   0.94470   0.43320   0.01267  Uiso   1.00
H23    H     0.49590   0.85120   0.34650   0.01267  Uiso   1.00
H24    H     0.76260   0.71120   0.42380   0.01267  Uiso   1.00
H25    H     0.83860   0.80790   0.50800   0.01267  Uiso   1.00
H26    H     0.57760   0.47740   0.25400   0.01267  Uiso   1.00
H27    H     0.74000   0.53060   0.25740   0.01267  Uiso   1.00
H28    H     0.65230   0.52080   0.18580   0.01267  Uiso   1.00
H29    H     0.82310   0.65970   0.88390   0.01267  Uiso   1.00
H30    H     0.91310   0.75120   0.79640   0.01267  Uiso   1.00
H31    H     0.15930   0.59600   0.73010   0.01267  Uiso   1.00
H32    H     0.06100   0.51030   0.81880   0.01267  Uiso   1.00
H33    H     0.41090   0.83920   0.53530   0.01267  Uiso   1.00
H34    H     0.44310   0.76160   0.57330   0.01267  Uiso   1.00
H35    H     0.33280   0.75190   0.50910   0.01267  Uiso   1.00
H36    H     0.58050   0.44470   0.06680   0.01267  Uiso   1.00
H37    H     0.49590   0.35120   0.15350   0.01267  Uiso   1.00
H38    H     0.76260   0.21120   0.07620   0.01267  Uiso   1.00
H39    H     0.83860   0.30790   0.99200   0.01267  Uiso   1.00
H40    H     0.57760   0.97740   0.24600   0.01267  Uiso   1.00
H41    H     0.74000   0.03060   0.24260   0.01267  Uiso   1.00
H42    H     0.65230   0.02080   0.31420   0.01267  Uiso   1.00
H43    H     0.17690   0.84030   0.38390   0.01267  Uiso   1.00
H44    H     0.08690   0.74880   0.29640   0.01267  Uiso   1.00
H45    H     0.84070   0.90400   0.23010   0.01267  Uiso   1.00
H46    H     0.93900   0.98970   0.31880   0.01267  Uiso   1.00
H47    H     0.58910   0.66080   0.03530   0.01267  Uiso   1.00
H48    H     0.55690   0.73840   0.07330   0.01267  Uiso   1.00
H49    H     0.66720   0.74810   0.00910   0.01267  Uiso   1.00
H50    H     0.41950   0.05530   0.56680   0.01267  Uiso   1.00
H51    H     0.50410   0.14880   0.65350   0.01267  Uiso   1.00
H52    H     0.23740   0.28880   0.57620   0.01267  Uiso   1.00
H53    H     0.16140   0.19210   0.49200   0.01267  Uiso   1.00
H54    H     0.42240   0.52260   0.74600   0.01267  Uiso   1.00
H55    H     0.26000   0.46940   0.74260   0.01267  Uiso   1.00
H56    H     0.34770   0.47920   0.81420   0.01267  Uiso   1.00
C1     C     0.10910   0.35371   0.14808   0.01267  Uiso   1.00
C2     C     0.05590   0.29806   0.20077   0.01267  Uiso   1.00
C3     C     0.95510   0.31710   0.24952   0.01267  Uiso   1.00
C4     C     0.91110   0.38948   0.23984   0.01267  Uiso   1.00
C5     C     0.97050   0.44071   0.18596   0.01267  Uiso   1.00
C6     C     0.89770   0.26308   0.30878   0.01267  Uiso   1.00
C7     C     0.85380   0.16261   0.40194   0.01267  Uiso   1.00
C8     C     0.75840   0.21508   0.40084   0.01267  Uiso   1.00
C9     C     0.86400   0.09512   0.45053   0.01267  Uiso   1.00
C10    C     0.63150   0.21564   0.45021   0.01267  Uiso   1.00
C11    C     0.38150   0.60257   0.93082   0.01267  Uiso   1.00
C12    C     0.43280   0.65861   0.87839   0.01267  Uiso   1.00
C13    C     0.37820   0.72961   0.87320   0.01267  Uiso   1.00
C14    C     0.27520   0.74146   0.92409   0.01267  Uiso   1.00
C15    C     0.23010   0.68288   0.97457   0.01267  Uiso   1.00
C16    C     0.42370   0.79147   0.81754   0.01267  Uiso   1.00
C17    C     0.53430   0.87696   0.72046   0.01267  Uiso   1.00
C18    C     0.41780   0.90115   0.75320   0.01267  Uiso   1.00
C19    C     0.62990   0.91481   0.66060   0.01267  Uiso   1.00
C20    C     0.35650   0.97466   0.73607   0.01267  Uiso   1.00
C21    C     0.89090   0.14629   0.64808   0.01267  Uiso   1.00
C22    C     0.94410   0.20194   0.70077   0.01267  Uiso   1.00
C23    C     0.04490   0.18290   0.74952   0.01267  Uiso   1.00
C24    C     0.08890   0.11052   0.73984   0.01267  Uiso   1.00
C25    C     0.02950   0.05929   0.68596   0.01267  Uiso   1.00
C26    C     0.10230   0.23692   0.80878   0.01267  Uiso   1.00
C27    C     0.14620   0.33739   0.90194   0.01267  Uiso   1.00
C28    C     0.24160   0.28492   0.90084   0.01267  Uiso   1.00
C29    C     0.13600   0.40488   0.95053   0.01267  Uiso   1.00
C30    C     0.36850   0.28436   0.95021   0.01267  Uiso   1.00
C31    C     0.61850   0.89743   0.43082   0.01267  Uiso   1.00
C32    C     0.56720   0.84139   0.37839   0.01267  Uiso   1.00
C33    C     0.62180   0.77039   0.37320   0.01267  Uiso   1.00
C34    C     0.72480   0.75854   0.42409   0.01267  Uiso   1.00
C35    C     0.76990   0.81712   0.47457   0.01267  Uiso   1.00
C36    C     0.57630   0.70853   0.31754   0.01267  Uiso   1.00
C37    C     0.46570   0.62304   0.22046   0.01267  Uiso   1.00
C38    C     0.58220   0.59885   0.25320   0.01267  Uiso   1.00
C39    C     0.37010   0.58519   0.16060   0.01267  Uiso   1.00
C40    C     0.64350   0.52534   0.23607   0.01267  Uiso   1.00
C41    C     0.89090   0.64629   0.85192   0.01267  Uiso   1.00
C42    C     0.94410   0.70194   0.79923   0.01267  Uiso   1.00
C43    C     0.04490   0.68290   0.75048   0.01267  Uiso   1.00
C44    C     0.08890   0.61052   0.76016   0.01267  Uiso   1.00
C45    C     0.02950   0.55929   0.81404   0.01267  Uiso   1.00
C46    C     0.10230   0.73692   0.69122   0.01267  Uiso   1.00
C47    C     0.14620   0.83739   0.59806   0.01267  Uiso   1.00
C48    C     0.24160   0.78492   0.59916   0.01267  Uiso   1.00
C49    C     0.13600   0.90488   0.54947   0.01267  Uiso   1.00
C50    C     0.36850   0.78436   0.54979   0.01267  Uiso   1.00
C51    C     0.61850   0.39743   0.06918   0.01267  Uiso   1.00
C52    C     0.56720   0.34139   0.12161   0.01267  Uiso   1.00
C53    C     0.62180   0.27039   0.12680   0.01267  Uiso   1.00
C54    C     0.72480   0.25854   0.07591   0.01267  Uiso   1.00
C55    C     0.76990   0.31712   0.02543   0.01267  Uiso   1.00
C56    C     0.57630   0.20853   0.18246   0.01267  Uiso   1.00
C57    C     0.46570   0.12304   0.27954   0.01267  Uiso   1.00
C58    C     0.58220   0.09885   0.24680   0.01267  Uiso   1.00
C59    C     0.37010   0.08519   0.33940   0.01267  Uiso   1.00
C60    C     0.64350   0.02534   0.26393   0.01267  Uiso   1.00
C61    C     0.10910   0.85371   0.35192   0.01267  Uiso   1.00
C62    C     0.05590   0.79806   0.29923   0.01267  Uiso   1.00
C63    C     0.95510   0.81710   0.25048   0.01267  Uiso   1.00
C64    C     0.91110   0.88948   0.26016   0.01267  Uiso   1.00
C65    C     0.97050   0.94071   0.31404   0.01267  Uiso   1.00
C66    C     0.89770   0.76308   0.19122   0.01267  Uiso   1.00
C67    C     0.85380   0.66261   0.09806   0.01267  Uiso   1.00
C68    C     0.75840   0.71508   0.09916   0.01267  Uiso   1.00
C69    C     0.86400   0.59512   0.04947   0.01267  Uiso   1.00
C70    C     0.63150   0.71564   0.04979   0.01267  Uiso   1.00
C71    C     0.38150   0.10257   0.56918   0.01267  Uiso   1.00
C72    C     0.43280   0.15861   0.62161   0.01267  Uiso   1.00
C73    C     0.37820   0.22961   0.62680   0.01267  Uiso   1.00
C74    C     0.27520   0.24146   0.57591   0.01267  Uiso   1.00
C75    C     0.23010   0.18288   0.52543   0.01267  Uiso   1.00
C76    C     0.42370   0.29147   0.68246   0.01267  Uiso   1.00
C77    C     0.53430   0.37696   0.77954   0.01267  Uiso   1.00
C78    C     0.41780   0.40115   0.74680   0.01267  Uiso   1.00
C79    C     0.62990   0.41481   0.83940   0.01267  Uiso   1.00
C80    C     0.35650   0.47466   0.76393   0.01267  Uiso   1.00
S1     S     0.97993   0.18452   0.33363   0.01267  Uiso   1.00
S2     S     0.56700   0.78995   0.75958   0.01267  Uiso   1.00
S3     S     0.02007   0.31548   0.83363   0.01267  Uiso   1.00
S4     S     0.43300   0.71005   0.25958   0.01267  Uiso   1.00
S5     S     0.02007   0.81548   0.66637   0.01267  Uiso   1.00
S6     S     0.43300   0.21005   0.24042   0.01267  Uiso   1.00
S7     S     0.97993   0.68452   0.16637   0.01267  Uiso   1.00
S8     S     0.56700   0.28995   0.74042   0.01267  Uiso   1.00
N1     N     0.06980   0.42478   0.14030   0.01267  Uiso   1.00
N2     N     0.78540   0.27320   0.34797   0.01267  Uiso   1.00
N3     N     0.27930   0.61313   0.97849   0.01267  Uiso   1.00
N4     N     0.35560   0.85229   0.80796   0.01267  Uiso   1.00
N5     N     0.93020   0.07522   0.64030   0.01267  Uiso   1.00
N6     N     0.21460   0.22680   0.84797   0.01267  Uiso   1.00
N7     N     0.72070   0.88687   0.47849   0.01267  Uiso   1.00
N8     N     0.64440   0.64771   0.30796   0.01267  Uiso   1.00
N9     N     0.93020   0.57522   0.85970   0.01267  Uiso   1.00
N10    N     0.21460   0.72680   0.65203   0.01267  Uiso   1.00
N11    N     0.72070   0.38687   0.02151   0.01267  Uiso   1.00
N12    N     0.64440   0.14771   0.19204   0.01267  Uiso   1.00
N13    N     0.06980   0.92478   0.35970   0.01267  Uiso   1.00
N14    N     0.78540   0.77320   0.15203   0.01267  Uiso   1.00
N15    N     0.27930   0.11313   0.52151   0.01267  Uiso   1.00
N16    N     0.35560   0.35229   0.69204   0.01267  Uiso   1.00
O1     O     0.97068   0.05911   0.44222   0.01267  Uiso   1.00
O2     O     0.76802   0.07639   0.49825   0.01267  Uiso   1.00
O3     O     0.73930   0.88415   0.64491   0.01267  Uiso   1.00
O4     O     0.60169   0.97569   0.62957   0.01267  Uiso   1.00
O5     O     0.02932   0.44089   0.94222   0.01267  Uiso   1.00
O6     O     0.23198   0.42361   0.99825   0.01267  Uiso   1.00
O7     O     0.26070   0.61585   0.14491   0.01267  Uiso   1.00
O8     O     0.39831   0.52431   0.12957   0.01267  Uiso   1.00
O9     O     0.02932   0.94089   0.55778   0.01267  Uiso   1.00
O10    O     0.23198   0.92361   0.50175   0.01267  Uiso   1.00
O11    O     0.26070   0.11585   0.35509   0.01267  Uiso   1.00
O12    O     0.39831   0.02431   0.37043   0.01267  Uiso   1.00
O13    O     0.97068   0.55911   0.05778   0.01267  Uiso   1.00
O14    O     0.76802   0.57639   0.00175   0.01267  Uiso   1.00
O15    O     0.73930   0.38415   0.85509   0.01267  Uiso   1.00
O16    O     0.60169   0.47569   0.87043   0.01267  Uiso   1.00
