data_TEQVOC_clean
_audit_creation_date              2014-07-02
_audit_creation_method            'Materials Studio'
_symmetry_space_group_name_H-M    'P1'
_symmetry_Int_Tables_number       1
_symmetry_cell_setting            triclinic
loop_
_symmetry_equiv_pos_as_xyz
  x,y,z
_cell_length_a                    6.8627
_cell_length_b                    17.4948
_cell_length_c                    18.0665
_cell_angle_alpha                 117.7170
_cell_angle_beta                  98.1245
_cell_angle_gamma                 95.7614
loop_
_atom_site_label
_atom_site_type_symbol
_atom_site_fract_x
_atom_site_fract_y
_atom_site_fract_z
_atom_site_U_iso_or_equiv
_atom_site_adp_type
_atom_site_occupancy
Ba1    Ba    0.79974   0.98282   0.59156   0.01267  Uiso   1.00
Ba2    Ba    0.20818   0.39126   0.40844   0.01267  Uiso   1.00
Zn1    Zn    0.28873   0.11108   0.73834   0.01267  Uiso   1.00
Zn2    Zn    0.25978   0.07987   0.53212   0.01267  Uiso   1.00
Zn3    Zn    0.55039   0.37274   0.26166   0.01267  Uiso   1.00
Zn4    Zn    0.72766   0.54775   0.46788   0.01267  Uiso   1.00
H1     H     0.71810   0.05970   0.87240   0.01267  Uiso   1.00
H2     H     0.50510   0.14430   0.10780   0.01267  Uiso   1.00
H3     H     0.37410   0.14070   0.03520   0.01267  Uiso   1.00
H4     H     0.34790   0.07420   0.07020   0.01267  Uiso   1.00
H5     H     0.08940   0.76330   0.47900   0.01267  Uiso   1.00
H6     H     0.31300   0.58220   0.29620   0.01267  Uiso   1.00
H7     H     0.68300   0.60350   0.29520   0.01267  Uiso   1.00
H8     H     0.74670   0.59870   0.21340   0.01267  Uiso   1.00
H9     H     0.53490   0.54920   0.20580   0.01267  Uiso   1.00
H10    H     0.29370   0.62750   0.16440   0.01267  Uiso   1.00
H11    H     0.48570   0.62950   0.12700   0.01267  Uiso   1.00
H12    H     0.40170   0.71600   0.17400   0.01267  Uiso   1.00
H13    H     0.67210   0.80720   0.28560   0.01267  Uiso   1.00
H14    H     0.80120   0.73830   0.23700   0.01267  Uiso   1.00
H15    H     0.80680   0.77030   0.33420   0.01267  Uiso   1.00
H16    H     0.48670   0.83750   0.37040   0.01267  Uiso   1.00
H17    H     0.48300   0.79390   0.59900   0.01267  Uiso   1.00
H18    H     0.19370   0.63210   0.66540   0.01267  Uiso   1.00
H19    H     0.10920   0.88060   0.75820   0.01267  Uiso   1.00
H20    H     0.81000   0.63160   0.67760   0.01267  Uiso   1.00
H21    H     0.77560   0.64550   0.76660   0.01267  Uiso   1.00
H22    H     0.96020   0.60620   0.73260   0.01267  Uiso   1.00
H23    H     0.20910   0.70450   0.84400   0.01267  Uiso   1.00
H24    H     0.06360   0.75650   0.89980   0.01267  Uiso   1.00
H25    H     0.23630   0.80660   0.88140   0.01267  Uiso   1.00
H26    H     0.92920   0.86180   0.83960   0.01267  Uiso   1.00
H27    H     0.77150   0.78840   0.83640   0.01267  Uiso   1.00
H28    H     0.77290   0.79820   0.75460   0.01267  Uiso   1.00
H29    H     0.84570   0.18730   0.12760   0.01267  Uiso   1.00
H30    H     0.39730   0.03650   0.89220   0.01267  Uiso   1.00
H31    H     0.33890   0.10550   0.96480   0.01267  Uiso   1.00
H32    H     0.27770   0.00400   0.92980   0.01267  Uiso   1.00
H33    H     0.61040   0.28430   0.52100   0.01267  Uiso   1.00
H34    H     0.01680   0.28600   0.70380   0.01267  Uiso   1.00
H35    H     0.38780   0.30830   0.70480   0.01267  Uiso   1.00
H36    H     0.53330   0.38530   0.78660   0.01267  Uiso   1.00
H37    H     0.32910   0.34340   0.79420   0.01267  Uiso   1.00
H38    H     0.12930   0.46310   0.83560   0.01267  Uiso   1.00
H39    H     0.35870   0.50250   0.87300   0.01267  Uiso   1.00
H40    H     0.22770   0.54200   0.82600   0.01267  Uiso   1.00
H41    H     0.38650   0.52160   0.71440   0.01267  Uiso   1.00
H42    H     0.56420   0.50130   0.76300   0.01267  Uiso   1.00
H43    H     0.47260   0.43610   0.66580   0.01267  Uiso   1.00
H44    H     0.11630   0.46710   0.62960   0.01267  Uiso   1.00
H45    H     0.88400   0.19490   0.40100   0.01267  Uiso   1.00
H46    H     0.52830   0.96670   0.33460   0.01267  Uiso   1.00
H47    H     0.35100   0.12240   0.24180   0.01267  Uiso   1.00
H48    H     0.13240   0.95400   0.32240   0.01267  Uiso   1.00
H49    H     0.00900   0.87890   0.23340   0.01267  Uiso   1.00
H50    H     0.22760   0.87360   0.26740   0.01267  Uiso   1.00
H51    H     0.36510   0.86050   0.15600   0.01267  Uiso   1.00
H52    H     0.16380   0.85670   0.10020   0.01267  Uiso   1.00
H53    H     0.35490   0.92520   0.11860   0.01267  Uiso   1.00
H54    H     0.08960   0.02220   0.16040   0.01267  Uiso   1.00
H55    H     0.93510   0.95200   0.16360   0.01267  Uiso   1.00
H56    H     0.01830   0.04360   0.24540   0.01267  Uiso   1.00
H57    H     0.19510   0.25620   0.00000   0.01267  Uiso   1.00
C1     C     0.01702   0.13782   0.83924   0.01267  Uiso   1.00
C2     C     0.96205   0.15625   0.92310   0.01267  Uiso   1.00
C3     C     0.79841   0.10331   0.92402   0.01267  Uiso   1.00
C4     C     0.65610   0.99410   0.03220   0.01267  Uiso   1.00
C5     C     0.44320   0.11120   0.06100   0.01267  Uiso   1.00
C6     C     0.24579   0.90649   0.48258   0.01267  Uiso   1.00
C7     C     0.28107   0.81577   0.43254   0.01267  Uiso   1.00
C8     C     0.17272   0.74922   0.44004   0.01267  Uiso   1.00
C9     C     0.18645   0.66235   0.39050   0.01267  Uiso   1.00
C10    C     0.06425   0.59225   0.40110   0.01267  Uiso   1.00
C11    C     0.30781   0.64091   0.33082   0.01267  Uiso   1.00
C12    C     0.42201   0.70531   0.32162   0.01267  Uiso   1.00
C13    C     0.54980   0.68190   0.25620   0.01267  Uiso   1.00
C14    C     0.63650   0.60090   0.24120   0.01267  Uiso   1.00
C15    C     0.42120   0.66190   0.17300   0.01267  Uiso   1.00
C16    C     0.72340   0.75620   0.28040   0.01267  Uiso   1.00
C17    C     0.40909   0.79319   0.37418   0.01267  Uiso   1.00
C18    C     0.34370   0.93730   0.68300   0.01267  Uiso   1.00
C19    C     0.30145   0.84895   0.67830   0.01267  Uiso   1.00
C20    C     0.39370   0.78330   0.62880   0.01267  Uiso   1.00
C21    C     0.35460   0.70040   0.62280   0.01267  Uiso   1.00
C22    C     0.44584   0.62594   0.56608   0.01267  Uiso   1.00
C23    C     0.22152   0.68722   0.66964   0.01267  Uiso   1.00
C24    C     0.13024   0.75284   0.72168   0.01267  Uiso   1.00
C25    C     0.17070   0.83530   0.72480   0.01267  Uiso   1.00
C26    C     0.00030   0.73930   0.77780   0.01267  Uiso   1.00
C27    C     0.87500   0.64720   0.73480   0.01267  Uiso   1.00
C28    C     0.14030   0.75300   0.85820   0.01267  Uiso   1.00
C29    C     0.85510   0.80280   0.80460   0.01267  Uiso   1.00
C30    C     0.17778   0.29858   0.16076   0.01267  Uiso   1.00
C31    C     0.03895   0.23315   0.07690   0.01267  Uiso   1.00
C32    C     0.87439   0.17929   0.07598   0.01267  Uiso   1.00
C33    C     0.62390   0.96190   0.96780   0.01267  Uiso   1.00
C34    C     0.38220   0.05020   0.93900   0.01267  Uiso   1.00
C35    C     0.76321   0.42391   0.51742   0.01267  Uiso   1.00
C36    C     0.84853   0.38323   0.56746   0.01267  Uiso   1.00
C37    C     0.73268   0.30918   0.55996   0.01267  Uiso   1.00
C38    C     0.79595   0.27185   0.60950   0.01267  Uiso   1.00
C39    C     0.66315   0.19115   0.59890   0.01267  Uiso   1.00
C40    C     0.97699   0.31009   0.66918   0.01267  Uiso   1.00
C41    C     0.10039   0.38369   0.67838   0.01267  Uiso   1.00
C42    C     0.29360   0.42570   0.74380   0.01267  Uiso   1.00
C43    C     0.39530   0.35970   0.75880   0.01267  Uiso   1.00
C44    C     0.24820   0.48890   0.82700   0.01267  Uiso   1.00
C45    C     0.44300   0.47580   0.71960   0.01267  Uiso   1.00
C46    C     0.03491   0.41901   0.62582   0.01267  Uiso   1.00
C47    C     0.66070   0.25430   0.31700   0.01267  Uiso   1.00
C48    C     0.62315   0.17065   0.32170   0.01267  Uiso   1.00
C49    C     0.76490   0.15450   0.37120   0.01267  Uiso   1.00
C50    C     0.73180   0.07760   0.37720   0.01267  Uiso   1.00
C51    C     0.87976   0.05986   0.43392   0.01267  Uiso   1.00
C52    C     0.55188   0.01758   0.33036   0.01267  Uiso   1.00
C53    C     0.40856   0.03116   0.27832   0.01267  Uiso   1.00
C54    C     0.44590   0.11050   0.27520   0.01267  Uiso   1.00
C55    C     0.22250   0.96150   0.22220   0.01267  Uiso   1.00
C56    C     0.14020   0.91240   0.26520   0.01267  Uiso   1.00
C57    C     0.28210   0.89480   0.14180   0.01267  Uiso   1.00
C58    C     0.05050   0.99820   0.19540   0.01267  Uiso   1.00
C59    C     0.08400   0.22110  -0.00000   0.01267  Uiso   1.00
C60    C     0.75170   0.11380  -0.00000   0.01267  Uiso   1.00
C61    C     0.57510   0.05320   0.00000   0.01267  Uiso   1.00
O1     O     0.89662   0.08812   0.77104   0.01267  Uiso   1.00
O2     O     0.19310   0.17390   0.84380   0.01267  Uiso   1.00
O3     O     0.15644   0.11414   0.63802   0.01267  Uiso   1.00
O4     O     0.36890   0.97040   0.48720   0.01267  Uiso   1.00
O5     O     0.10090   0.91750   0.51720   0.01267  Uiso   1.00
O6     O     0.09534   0.51524   0.36528   0.01267  Uiso   1.00
O7     O     0.93071   0.61741   0.44422   0.01267  Uiso   1.00
O8     O     0.48773   0.95703   0.65726   0.01267  Uiso   1.00
O9     O     0.22226   0.98966   0.71512   0.01267  Uiso   1.00
O10    O     0.60180   0.64550   0.54200   0.01267  Uiso   1.00
O11    O     0.37045   0.54995   0.54590   0.01267  Uiso   1.00
O12    O     0.12558   0.31708   0.22896   0.01267  Uiso   1.00
O13    O     0.34930   0.33010   0.15620   0.01267  Uiso   1.00
O14    O     0.51842   0.47612   0.36198   0.01267  Uiso   1.00
O15    O     0.88170   0.48320   0.51280   0.01267  Uiso   1.00
O16    O     0.58370   0.40030   0.48280   0.01267  Uiso   1.00
O17    O     0.73006   0.14996   0.63472   0.01267  Uiso   1.00
O18    O     0.48649   0.17319   0.55578   0.01267  Uiso   1.00
O19    O     0.83047   0.29977   0.34274   0.01267  Uiso   1.00
O20    O     0.50714   0.27454   0.28488   0.01267  Uiso   1.00
O21    O     0.05980   0.10350   0.45800   0.01267  Uiso   1.00
O22    O     0.82455   0.00405   0.45410   0.01267  Uiso   1.00
