data_TERFIH_clean
_audit_creation_date              2014-07-02
_audit_creation_method            'Materials Studio'
_symmetry_space_group_name_H-M    'P1'
_symmetry_Int_Tables_number       1
_symmetry_cell_setting            triclinic
loop_
_symmetry_equiv_pos_as_xyz
  x,y,z
_cell_length_a                    14.0368
_cell_length_b                    15.1189
_cell_length_c                    15.1242
_cell_angle_alpha                 85.3580
_cell_angle_beta                  85.5550
_cell_angle_gamma                 86.3500
loop_
_atom_site_label
_atom_site_type_symbol
_atom_site_fract_x
_atom_site_fract_y
_atom_site_fract_z
_atom_site_U_iso_or_equiv
_atom_site_adp_type
_atom_site_occupancy
Zn1    Zn    0.30756   0.38485   0.65272   0.01267  Uiso   1.00
Zn2    Zn    0.09796   0.39539   0.66631   0.01267  Uiso   1.00
H1     H     0.78890   0.39030   0.52750   0.01267  Uiso   1.00
H2     H     0.95040   0.39490   0.53300   0.01267  Uiso   1.00
H3     H     0.92380   0.37930   0.79380   0.01267  Uiso   1.00
H4     H     0.76310   0.37590   0.79330   0.01267  Uiso   1.00
H5     H     0.05540   0.42170   0.95550   0.01267  Uiso   1.00
H6     H     0.33460   0.36040   0.93350   0.01267  Uiso   1.00
H7     H     0.34340   0.66890   0.65000   0.01267  Uiso   1.00
H8     H     0.05950   0.68290   0.68900   0.01267  Uiso   1.00
H9     H     0.34710   0.09380   0.65210   0.01267  Uiso   1.00
H10    H     0.06980   0.11170   0.72110   0.01267  Uiso   1.00
H11    H     0.48300   0.40760   0.52880   0.01267  Uiso   1.00
H12    H     0.64130   0.41630   0.52980   0.01267  Uiso   1.00
H13    H     0.62050   0.36910   0.78520   0.01267  Uiso   1.00
H14    H     0.45490   0.36940   0.78440   0.01267  Uiso   1.00
H15    H     0.35120   0.37710   0.36080   0.01267  Uiso   1.00
H16    H     0.06450   0.39400   0.38710   0.01267  Uiso   1.00
H17    H     0.33340   0.34700   0.08270   0.01267  Uiso   1.00
H18    H     0.06170   0.42610   0.10750   0.01267  Uiso   1.00
Ir1    Ir    0.38290   0.88100   0.66280   0.01267  Uiso   1.00
Ir2    Ir    0.03540   0.90900   0.67100   0.01267  Uiso   1.00
C1     C     0.75730   0.38420   0.66030   0.01267  Uiso   1.00
C2     C     0.81550   0.38890   0.58280   0.01267  Uiso   1.00
C3     C     0.21260   0.38900   0.48860   0.01267  Uiso   1.00
C4     C     0.19240   0.39090   0.83010   0.01267  Uiso   1.00
C5     C     0.91160   0.39130   0.58660   0.01267  Uiso   1.00
C6     C     0.19790   0.56410   0.65450   0.01267  Uiso   1.00
C7     C     0.89580   0.38240   0.73900   0.01267  Uiso   1.00
C8     C     0.19350   0.39220   0.92910   0.01267  Uiso   1.00
C9     C     0.20070   0.38880   0.11070   0.01267  Uiso   1.00
C10    C     0.19990   0.66030   0.66120   0.01267  Uiso   1.00
C11    C     0.80060   0.38020   0.73900   0.01267  Uiso   1.00
C12    C     0.20930   0.12170   0.68040   0.01267  Uiso   1.00
C13    C     0.11410   0.40970   0.98120   0.01267  Uiso   1.00
C14    C     0.27730   0.37140   0.96830   0.01267  Uiso   1.00
C15    C     0.28480   0.70230   0.65720   0.01267  Uiso   1.00
C16    C     0.21080   0.21830   0.67360   0.01267  Uiso   1.00
C17    C     0.11780   0.71060   0.67850   0.01267  Uiso   1.00
C18    C     0.20340   0.84070   0.67620   0.01267  Uiso   1.00
C19    C     0.20450   0.93780   0.68020   0.01267  Uiso   1.00
C20    C     0.28770   0.06820   0.66320   0.01267  Uiso   1.00
C21    C     0.12650   0.07820   0.70530   0.01267  Uiso   1.00
C22    C     0.64910   0.38590   0.65870   0.01267  Uiso   1.00
C23    C     0.51040   0.39910   0.58380   0.01267  Uiso   1.00
C24    C     0.60520   0.40230   0.58350   0.01267  Uiso   1.00
C25    C     0.59280   0.37630   0.73020   0.01267  Uiso   1.00
C26    C     0.49300   0.37600   0.73060   0.01267  Uiso   1.00
C27    C     0.21120   0.38520   0.38880   0.01267  Uiso   1.00
C28    C     0.29190   0.38030   0.33550   0.01267  Uiso   1.00
C29    C     0.12190   0.39150   0.35080   0.01267  Uiso   1.00
C30    C     0.20380   0.38790   0.20860   0.01267  Uiso   1.00
C31    C     0.27650   0.36690   0.05670   0.01267  Uiso   1.00
C32    C     0.11730   0.41050   0.07220   0.01267  Uiso   1.00
C33    C     0.28450   0.79220   0.66360   0.01267  Uiso   1.00
C34    C     0.11830   0.80120   0.68100   0.01267  Uiso   1.00
N1     N     0.95310   0.38890   0.66310   0.01267  Uiso   1.00
N2     N     0.45400   0.38510   0.65380   0.01267  Uiso   1.00
N3     N     0.12520   0.98900   0.70750   0.01267  Uiso   1.00
N4     N     0.29040   0.37980   0.24520   0.01267  Uiso   1.00
N5     N     0.28450   0.97860   0.66140   0.01267  Uiso   1.00
N6     N     0.12060   0.39380   0.26280   0.01267  Uiso   1.00
O1     O     0.27000   0.38270   0.78570   0.01267  Uiso   1.00
O2     O     0.29170   0.38870   0.51920   0.01267  Uiso   1.00
O3     O     0.13360   0.39040   0.53470   0.01267  Uiso   1.00
O4     O     0.11160   0.40290   0.79880   0.01267  Uiso   1.00
O5     O     0.27910   0.51930   0.64760   0.01267  Uiso   1.00
O6     O     0.13120   0.26190   0.68370   0.01267  Uiso   1.00
O7     O     0.11860   0.52820   0.65340   0.01267  Uiso   1.00
O8     O     0.29120   0.25270   0.65960   0.01267  Uiso   1.00
Zn3    Zn    0.69244   0.61515   0.34728   0.01267  Uiso   1.00
Zn4    Zn    0.90204   0.60461   0.33369   0.01267  Uiso   1.00
H19    H     0.21110   0.60970   0.47250   0.01267  Uiso   1.00
H20    H     0.04960   0.60510   0.46700   0.01267  Uiso   1.00
H21    H     0.07620   0.62070   0.20620   0.01267  Uiso   1.00
H22    H     0.23690   0.62410   0.20670   0.01267  Uiso   1.00
H23    H     0.94460   0.57830   0.04450   0.01267  Uiso   1.00
H24    H     0.66540   0.63960   0.06650   0.01267  Uiso   1.00
H25    H     0.65660   0.33110   0.35000   0.01267  Uiso   1.00
H26    H     0.94050   0.31710   0.31100   0.01267  Uiso   1.00
H27    H     0.65290   0.90620   0.34790   0.01267  Uiso   1.00
H28    H     0.93020   0.88830   0.27890   0.01267  Uiso   1.00
H29    H     0.51700   0.59240   0.47120   0.01267  Uiso   1.00
H30    H     0.35870   0.58370   0.47020   0.01267  Uiso   1.00
H31    H     0.37950   0.63090   0.21480   0.01267  Uiso   1.00
H32    H     0.54510   0.63060   0.21560   0.01267  Uiso   1.00
H33    H     0.64880   0.62290   0.63920   0.01267  Uiso   1.00
H34    H     0.93550   0.60600   0.61290   0.01267  Uiso   1.00
H35    H     0.66660   0.65300   0.91730   0.01267  Uiso   1.00
H36    H     0.93830   0.57390   0.89250   0.01267  Uiso   1.00
Ir3    Ir    0.61710   0.11900   0.33720   0.01267  Uiso   1.00
Ir4    Ir    0.96460   0.09100   0.32900   0.01267  Uiso   1.00
C35    C     0.24270   0.61580   0.33970   0.01267  Uiso   1.00
C36    C     0.18450   0.61110   0.41720   0.01267  Uiso   1.00
C37    C     0.78740   0.61100   0.51140   0.01267  Uiso   1.00
C38    C     0.80760   0.60910   0.16990   0.01267  Uiso   1.00
C39    C     0.08840   0.60870   0.41340   0.01267  Uiso   1.00
C40    C     0.80210   0.43590   0.34550   0.01267  Uiso   1.00
C41    C     0.10420   0.61760   0.26100   0.01267  Uiso   1.00
C42    C     0.80650   0.60780   0.07090   0.01267  Uiso   1.00
C43    C     0.79930   0.61120   0.88930   0.01267  Uiso   1.00
C44    C     0.80010   0.33970   0.33880   0.01267  Uiso   1.00
C45    C     0.19940   0.61980   0.26100   0.01267  Uiso   1.00
C46    C     0.79070   0.87830   0.31960   0.01267  Uiso   1.00
C47    C     0.88590   0.59030   0.01880   0.01267  Uiso   1.00
C48    C     0.72270   0.62860   0.03170   0.01267  Uiso   1.00
C49    C     0.71520   0.29770   0.34280   0.01267  Uiso   1.00
C50    C     0.78920   0.78170   0.32640   0.01267  Uiso   1.00
C51    C     0.88220   0.28940   0.32150   0.01267  Uiso   1.00
C52    C     0.79660   0.15930   0.32380   0.01267  Uiso   1.00
C53    C     0.79550   0.06220   0.31980   0.01267  Uiso   1.00
C54    C     0.71230   0.93180   0.33680   0.01267  Uiso   1.00
C55    C     0.87350   0.92180   0.29470   0.01267  Uiso   1.00
C56    C     0.35090   0.61410   0.34130   0.01267  Uiso   1.00
C57    C     0.48960   0.60090   0.41620   0.01267  Uiso   1.00
C58    C     0.39480   0.59770   0.41650   0.01267  Uiso   1.00
C59    C     0.40720   0.62370   0.26980   0.01267  Uiso   1.00
C60    C     0.50700   0.62400   0.26940   0.01267  Uiso   1.00
C61    C     0.78880   0.61480   0.61120   0.01267  Uiso   1.00
C62    C     0.70810   0.61970   0.66450   0.01267  Uiso   1.00
C63    C     0.87810   0.60850   0.64920   0.01267  Uiso   1.00
C64    C     0.79620   0.61210   0.79140   0.01267  Uiso   1.00
C65    C     0.72350   0.63310   0.94330   0.01267  Uiso   1.00
C66    C     0.88270   0.58950   0.92780   0.01267  Uiso   1.00
C67    C     0.71550   0.20780   0.33640   0.01267  Uiso   1.00
C68    C     0.88170   0.19880   0.31900   0.01267  Uiso   1.00
N7     N     0.04690   0.61110   0.33690   0.01267  Uiso   1.00
N8     N     0.54600   0.61490   0.34620   0.01267  Uiso   1.00
N9     N     0.87480   0.01100   0.29250   0.01267  Uiso   1.00
N10    N     0.70960   0.62020   0.75480   0.01267  Uiso   1.00
N11    N     0.71550   0.02140   0.33860   0.01267  Uiso   1.00
N12    N     0.87940   0.60620   0.73720   0.01267  Uiso   1.00
O9     O     0.73000   0.61730   0.21430   0.01267  Uiso   1.00
O10    O     0.70830   0.61130   0.48080   0.01267  Uiso   1.00
O11    O     0.86640   0.60960   0.46530   0.01267  Uiso   1.00
O12    O     0.88840   0.59710   0.20120   0.01267  Uiso   1.00
O13    O     0.72090   0.48070   0.35240   0.01267  Uiso   1.00
O14    O     0.86880   0.73810   0.31630   0.01267  Uiso   1.00
O15    O     0.88140   0.47180   0.34660   0.01267  Uiso   1.00
O16    O     0.70880   0.74730   0.34040   0.01267  Uiso   1.00
