data_TOHZAS_clean
_audit_creation_date              2014-07-02
_audit_creation_method            'Materials Studio'
_symmetry_space_group_name_H-M    'P1'
_symmetry_Int_Tables_number       1
_symmetry_cell_setting            triclinic
loop_
_symmetry_equiv_pos_as_xyz
  x,y,z
_cell_length_a                    9.5500
_cell_length_b                    13.3000
_cell_length_c                    13.3770
_cell_angle_alpha                 61.8200
_cell_angle_beta                  69.8800
_cell_angle_gamma                 76.1000
loop_
_atom_site_label
_atom_site_type_symbol
_atom_site_fract_x
_atom_site_fract_y
_atom_site_fract_z
_atom_site_U_iso_or_equiv
_atom_site_adp_type
_atom_site_occupancy
Cd1    Cd    0.37310   0.89267   0.09513   0.01267  Uiso   1.00
Cd2    Cd    0.62690   0.10733   0.90487   0.01267  Uiso   1.00
Cd3    Cd    0.00000   0.00000   0.00000   0.01267  Uiso   1.00
H1     H     0.37870   0.61330   0.95110   0.01267  Uiso   1.00
H2     H     0.43500   0.71890   0.83210   0.01267  Uiso   1.00
H3     H     0.19490   0.81620   0.86080   0.01267  Uiso   1.00
H4     H     0.14220   0.71120   0.98160   0.01267  Uiso   1.00
H5     H     0.43650   0.73150   0.48620   0.01267  Uiso   1.00
H6     H     0.39170   0.62480   0.48780   0.01267  Uiso   1.00
H7     H     0.19540   0.81860   0.48680   0.01267  Uiso   1.00
H8     H     0.14980   0.71180   0.48930   0.01267  Uiso   1.00
H9     H     0.09970   0.35170   0.96590   0.01267  Uiso   1.00
H10    H     0.10830   0.35230   0.84610   0.01267  Uiso   1.00
H11    H     0.36450   0.29160   0.82150   0.01267  Uiso   1.00
H12    H     0.35160   0.28690   0.94350   0.01267  Uiso   1.00
H13    H     0.62130   0.38670   0.04890   0.01267  Uiso   1.00
H14    H     0.56500   0.28110   0.16790   0.01267  Uiso   1.00
H15    H     0.80510   0.18380   0.13920   0.01267  Uiso   1.00
H16    H     0.85780   0.28880   0.01840   0.01267  Uiso   1.00
H17    H     0.56350   0.26850   0.51380   0.01267  Uiso   1.00
H18    H     0.60830   0.37520   0.51220   0.01267  Uiso   1.00
H19    H     0.80460   0.18140   0.51320   0.01267  Uiso   1.00
H20    H     0.85020   0.28820   0.51070   0.01267  Uiso   1.00
H21    H     0.90030   0.64830   0.03410   0.01267  Uiso   1.00
H22    H     0.89170   0.64770   0.15390   0.01267  Uiso   1.00
H23    H     0.63550   0.70840   0.17850   0.01267  Uiso   1.00
H24    H     0.64840   0.71310   0.05650   0.01267  Uiso   1.00
C1     C     0.23860   0.52730   0.88840   0.01267  Uiso   1.00
C2     C     0.33250   0.68790   0.70100   0.01267  Uiso   1.00
C3     C     0.25410   0.52630   0.70220   0.01267  Uiso   1.00
C4     C     0.34850   0.67670   0.88440   0.01267  Uiso   1.00
C5     C     0.22750   0.75400   0.92710   0.01267  Uiso   1.00
C6     C     0.28090   0.80290   0.98760   0.01267  Uiso   1.00
C7     C     0.35470   0.68530   0.51400   0.01267  Uiso   1.00
C8     C     0.23180   0.75810   0.46070   0.01267  Uiso   1.00
C9     C     0.27590   0.81030   0.33060   0.01267  Uiso   1.00
C10    C     0.16460   0.36240   0.88830   0.01267  Uiso   1.00
C11    C     0.29810   0.27660   0.89950   0.01267  Uiso   1.00
C12    C     0.26180   0.15250   0.96020   0.01267  Uiso   1.00
C13    C     0.76140   0.47270   0.11160   0.01267  Uiso   1.00
C14    C     0.66750   0.31210   0.29900   0.01267  Uiso   1.00
C15    C     0.74590   0.47370   0.29780   0.01267  Uiso   1.00
C16    C     0.65150   0.32330   0.11560   0.01267  Uiso   1.00
C17    C     0.77250   0.24600   0.07290   0.01267  Uiso   1.00
C18    C     0.71910   0.19710   0.01240   0.01267  Uiso   1.00
C19    C     0.64530   0.31470   0.48600   0.01267  Uiso   1.00
C20    C     0.76820   0.24190   0.53930   0.01267  Uiso   1.00
C21    C     0.72410   0.18970   0.66940   0.01267  Uiso   1.00
C22    C     0.83540   0.63760   0.11170   0.01267  Uiso   1.00
C23    C     0.70190   0.72340   0.10050   0.01267  Uiso   1.00
C24    C     0.73820   0.84750   0.03980   0.01267  Uiso   1.00
N1     N     0.21530   0.47950   0.82350   0.01267  Uiso   1.00
N2     N     0.30010   0.63090   0.82120   0.01267  Uiso   1.00
N3     N     0.30790   0.63340   0.64400   0.01267  Uiso   1.00
N4     N     0.78470   0.52050   0.17650   0.01267  Uiso   1.00
N5     N     0.69990   0.36910   0.17880   0.01267  Uiso   1.00
N6     N     0.69210   0.36660   0.35600   0.01267  Uiso   1.00
O1     O     0.20920   0.48220   0.99280   0.01267  Uiso   1.00
O2     O     0.38360   0.77940   0.64500   0.01267  Uiso   1.00
O3     O     0.24110   0.47910   0.64870   0.01267  Uiso   1.00
O4     O     0.40840   0.77460   0.00190   0.01267  Uiso   1.00
O5     O     0.40660   0.78960   0.27670   0.01267  Uiso   1.00
O6     O     0.18490   0.87070   0.27320   0.01267  Uiso   1.00
O7     O     0.37600   0.07890   0.98040   0.01267  Uiso   1.00
O8     O     0.13760   0.13130   0.98470   0.01267  Uiso   1.00
O9     O     0.19580   0.87100   0.02530   0.01267  Uiso   1.00
O10    O     0.79080   0.51780   0.00720   0.01267  Uiso   1.00
O11    O     0.61640   0.22060   0.35500   0.01267  Uiso   1.00
O12    O     0.75890   0.52090   0.35130   0.01267  Uiso   1.00
O13    O     0.59160   0.22540   0.99810   0.01267  Uiso   1.00
O14    O     0.59340   0.21040   0.72330   0.01267  Uiso   1.00
O15    O     0.81510   0.12930   0.72680   0.01267  Uiso   1.00
O16    O     0.62400   0.92110   0.01960   0.01267  Uiso   1.00
O17    O     0.86240   0.86870   0.01530   0.01267  Uiso   1.00
O18    O     0.80420   0.12900   0.97470   0.01267  Uiso   1.00
