data_TONBII_clean
_audit_creation_date              2014-07-02
_audit_creation_method            'Materials Studio'
_symmetry_space_group_name_H-M    'P1'
_symmetry_Int_Tables_number       1
_symmetry_cell_setting            triclinic
loop_
_symmetry_equiv_pos_as_xyz
  x,y,z
_cell_length_a                    4.7297
_cell_length_b                    11.1836
_cell_length_c                    11.9609
_cell_angle_alpha                 117.8730
_cell_angle_beta                  92.5530
_cell_angle_gamma                 90.0000
loop_
_atom_site_label
_atom_site_type_symbol
_atom_site_fract_x
_atom_site_fract_y
_atom_site_fract_z
_atom_site_U_iso_or_equiv
_atom_site_adp_type
_atom_site_occupancy
Fe1    Fe    0.25000   0.58222  -0.00000   0.01267  Uiso   1.00
Fe2    Fe    0.75000   0.41778   0.00000   0.01267  Uiso   1.00
H1     H     0.53170   0.70860   0.71260   0.01267  Uiso   1.00
H2     H     0.65520   0.69770   0.52780   0.01267  Uiso   1.00
H3     H     0.07980   0.41690   0.67300   0.01267  Uiso   1.00
H4     H     0.96830   0.99600   0.28740   0.01267  Uiso   1.00
H5     H     0.84480   0.16990   0.47220   0.01267  Uiso   1.00
H6     H     0.42020   0.74390   0.32700   0.01267  Uiso   1.00
H7     H     0.46830   0.29140   0.28740   0.01267  Uiso   1.00
H8     H     0.34480   0.30230   0.47220   0.01267  Uiso   1.00
H9     H     0.92020   0.58310   0.32700   0.01267  Uiso   1.00
H10    H     0.03170   0.00400   0.71260   0.01267  Uiso   1.00
H11    H     0.15520   0.83010   0.52780   0.01267  Uiso   1.00
H12    H     0.57980   0.25610   0.67300   0.01267  Uiso   1.00
C1     C     0.70660   0.56532   0.83164   0.01267  Uiso   1.00
C2     C     0.79390   0.56106   0.71072   0.01267  Uiso   1.00
C3     C     0.66560   0.64692   0.66684   0.01267  Uiso   1.00
C4     C     0.73700   0.63823   0.55386   0.01267  Uiso   1.00
C5     C     0.93580   0.54325   0.47810   0.01267  Uiso   1.00
C6     C     0.99150   0.46923   0.64046   0.01267  Uiso   1.00
C7     C     0.79340   0.73368   0.16836   0.01267  Uiso   1.00
C8     C     0.70610   0.85034   0.28928   0.01267  Uiso   1.00
C9     C     0.83440   0.98008   0.33316   0.01267  Uiso   1.00
C10    C     0.76300   0.08437   0.44614   0.01267  Uiso   1.00
C11    C     0.56420   0.06515   0.52190   0.01267  Uiso   1.00
C12    C     0.50850   0.82877   0.35954   0.01267  Uiso   1.00
C13    C     0.29340   0.43468   0.16836   0.01267  Uiso   1.00
C14    C     0.20610   0.43894   0.28928   0.01267  Uiso   1.00
C15    C     0.33440   0.35308   0.33316   0.01267  Uiso   1.00
C16    C     0.26300   0.36177   0.44614   0.01267  Uiso   1.00
C17    C     0.06420   0.45675   0.52190   0.01267  Uiso   1.00
C18    C     0.00850   0.53077   0.35954   0.01267  Uiso   1.00
C19    C     0.20660   0.26632   0.83164   0.01267  Uiso   1.00
C20    C     0.29390   0.14966   0.71072   0.01267  Uiso   1.00
C21    C     0.16560   0.01992   0.66684   0.01267  Uiso   1.00
C22    C     0.23700   0.91563   0.55386   0.01267  Uiso   1.00
C23    C     0.43580   0.93485   0.47810   0.01267  Uiso   1.00
C24    C     0.49150   0.17123   0.64046   0.01267  Uiso   1.00
O1     O     0.87000   0.50942   0.88072   0.01267  Uiso   1.00
O2     O     0.47470   0.61735   0.87430   0.01267  Uiso   1.00
O3     O     0.63000   0.62870   0.11928   0.01267  Uiso   1.00
O4     O     0.02530   0.74305   0.12570   0.01267  Uiso   1.00
O5     O     0.13000   0.49058   0.11928   0.01267  Uiso   1.00
O6     O     0.52530   0.38265   0.12570   0.01267  Uiso   1.00
O7     O     0.37000   0.37130   0.88072   0.01267  Uiso   1.00
O8     O     0.97470   0.25695   0.87430   0.01267  Uiso   1.00
