data_UDANAQ_clean
_audit_creation_date              2014-07-02
_audit_creation_method            'Materials Studio'
_symmetry_space_group_name_H-M    'P1'
_symmetry_Int_Tables_number       1
_symmetry_cell_setting            triclinic
loop_
_symmetry_equiv_pos_as_xyz
  x,y,z
_cell_length_a                    9.6779
_cell_length_b                    14.6341
_cell_length_c                    14.6341
_cell_angle_alpha                 83.7229
_cell_angle_beta                  70.6911
_cell_angle_gamma                 70.6910
loop_
_atom_site_label
_atom_site_type_symbol
_atom_site_fract_x
_atom_site_fract_y
_atom_site_fract_z
_atom_site_U_iso_or_equiv
_atom_site_adp_type
_atom_site_occupancy
Zn1    Zn    0.84755  -0.00000   0.00000   0.01267  Uiso   1.00
Zn2    Zn    0.15245  -0.00000   0.00000   0.01267  Uiso   1.00
H1     H     0.57420   0.22120   0.22120   0.01267  Uiso   1.00
H2     H     0.45620   0.33820   0.33820   0.01267  Uiso   1.00
H3     H     0.01660   0.77880   0.77880   0.01267  Uiso   1.00
H4     H     0.13260   0.66180   0.66180   0.01267  Uiso   1.00
H5     H     0.79540   0.77880   0.22120   0.01267  Uiso   1.00
H6     H     0.79440   0.66180   0.33820   0.01267  Uiso   1.00
H7     H     0.79540   0.22120   0.77880   0.01267  Uiso   1.00
H8     H     0.79440   0.33820   0.66180   0.01267  Uiso   1.00
H9     H     0.42580   0.77880   0.77880   0.01267  Uiso   1.00
H10    H     0.54380   0.66180   0.66180   0.01267  Uiso   1.00
H11    H     0.98340   0.22120   0.22120   0.01267  Uiso   1.00
H12    H     0.86740   0.33820   0.33820   0.01267  Uiso   1.00
H13    H     0.20460   0.77880   0.22120   0.01267  Uiso   1.00
H14    H     0.20560   0.66180   0.33820   0.01267  Uiso   1.00
H15    H     0.20460   0.22120   0.77880   0.01267  Uiso   1.00
H16    H     0.20560   0.33820   0.66180   0.01267  Uiso   1.00
H17    H     0.56180   0.66560   0.21080   0.01267  Uiso   1.00
H18    H     0.61870   0.50910   0.25350   0.01267  Uiso   1.00
H19    H     0.43820   0.33440   0.78920   0.01267  Uiso   1.00
H20    H     0.38130   0.49090   0.74650   0.01267  Uiso   1.00
H21    H     0.77260   0.78920   0.66560   0.01267  Uiso   1.00
H22    H     0.87220   0.74650   0.50910   0.01267  Uiso   1.00
H23    H     0.22740   0.21080   0.33440   0.01267  Uiso   1.00
H24    H     0.12780   0.25350   0.49090   0.01267  Uiso   1.00
H25    H     0.43820   0.78920   0.33440   0.01267  Uiso   1.00
H26    H     0.38130   0.74650   0.49090   0.01267  Uiso   1.00
H27    H     0.56180   0.21080   0.66560   0.01267  Uiso   1.00
H28    H     0.61870   0.25350   0.50910   0.01267  Uiso   1.00
H29    H     0.22740   0.33440   0.21080   0.01267  Uiso   1.00
H30    H     0.12780   0.49090   0.25350   0.01267  Uiso   1.00
H31    H     0.77260   0.66560   0.78920   0.01267  Uiso   1.00
H32    H     0.87220   0.50910   0.74650   0.01267  Uiso   1.00
H33    H     0.68880   0.85440  -0.00000   0.01267  Uiso   1.00
H34    H     0.54320   0.14560   1.00000   0.01267  Uiso   1.00
H35    H     0.68880  -0.00000   0.85440   0.01267  Uiso   1.00
H36    H     0.54320  -0.00000   0.14560   0.01267  Uiso   1.00
H37    H     0.31120   1.00000   0.14560   0.01267  Uiso   1.00
H38    H     0.45680   1.00000   0.85440   0.01267  Uiso   1.00
H39    H     0.31120   0.14560   1.00000   0.01267  Uiso   1.00
H40    H     0.45680   0.85440   1.00000   0.01267  Uiso   1.00
H41    H     0.60700   0.89200   0.10800   0.01267  Uiso   1.00
H42    H     0.60700   0.10800   0.89200   0.01267  Uiso   1.00
H43    H     0.71500   0.89200   0.89200   0.01267  Uiso   1.00
H44    H     0.49900   0.10800   0.10800   0.01267  Uiso   1.00
H45    H     0.39300   0.89200   0.10800   0.01267  Uiso   1.00
H46    H     0.39300   0.10800   0.89200   0.01267  Uiso   1.00
H47    H     0.28500   0.10800   0.10800   0.01267  Uiso   1.00
H48    H     0.50100   0.89200   0.89200   0.01267  Uiso   1.00
C1     C     0.60620   0.90800   0.03980   0.01267  Uiso   1.00
C2     C     0.55400   0.09200   0.96020   0.01267  Uiso   1.00
C3     C     0.64600   0.96020   0.90800   0.01267  Uiso   1.00
C4     C     0.51420   0.03980   0.09200   0.01267  Uiso   1.00
C5     C     0.39380   0.96020   0.09200   0.01267  Uiso   1.00
C6     C     0.44600   0.03980   0.90800   0.01267  Uiso   1.00
C7     C     0.35400   0.09200   0.03980   0.01267  Uiso   1.00
C8     C     0.48580   0.90800   0.96020   0.01267  Uiso   1.00
C9     C     0.39380   0.09200   0.96020   0.01267  Uiso   1.00
C10    C     0.44600   0.90800   0.03980   0.01267  Uiso   1.00
C11    C     0.35400   0.03980   0.09200   0.01267  Uiso   1.00
C12    C     0.48580   0.96020   0.90800   0.01267  Uiso   1.00
C13    C     0.60620   0.03980   0.90800   0.01267  Uiso   1.00
C14    C     0.55400   0.96020   0.09200   0.01267  Uiso   1.00
C15    C     0.64600   0.90800   0.96020   0.01267  Uiso   1.00
C16    C     0.51420   0.09200   0.03980   0.01267  Uiso   1.00
C17    C     0.63410   0.24480   0.24480   0.01267  Uiso   1.00
C18    C     0.56330   0.31490   0.31490   0.01267  Uiso   1.00
C19    C     0.12370   0.75520   0.75520   0.01267  Uiso   1.00
C20    C     0.19310   0.68510   0.68510   0.01267  Uiso   1.00
C21    C     0.87890   0.75520   0.24480   0.01267  Uiso   1.00
C22    C     0.87820   0.68510   0.31490   0.01267  Uiso   1.00
C23    C     0.87890   0.24480   0.75520   0.01267  Uiso   1.00
C24    C     0.87820   0.31490   0.68510   0.01267  Uiso   1.00
C25    C     0.36590   0.75520   0.75520   0.01267  Uiso   1.00
C26    C     0.43670   0.68510   0.68510   0.01267  Uiso   1.00
C27    C     0.87630   0.24480   0.24480   0.01267  Uiso   1.00
C28    C     0.80690   0.31490   0.31490   0.01267  Uiso   1.00
C29    C     0.12110   0.75520   0.24480   0.01267  Uiso   1.00
C30    C     0.12180   0.68510   0.31490   0.01267  Uiso   1.00
C31    C     0.12110   0.24480   0.75520   0.01267  Uiso   1.00
C32    C     0.12180   0.31490   0.68510   0.01267  Uiso   1.00
C33    C     0.57170   0.42830   0.42830   0.01267  Uiso   1.00
C34    C     0.79140   0.20860   0.20860   0.01267  Uiso   1.00
C35    C     0.64890   0.35110   0.35110   0.01267  Uiso   1.00
C36    C     0.86860   0.13140   0.13140   0.01267  Uiso   1.00
C37    C     0.42830   0.57170   0.57170   0.01267  Uiso   1.00
C38    C     0.20860   0.79140   0.79140   0.01267  Uiso   1.00
C39    C     0.35110   0.64890   0.64890   0.01267  Uiso   1.00
C40    C     0.13140   0.86860   0.86860   0.01267  Uiso   1.00
C41    C     0.00000   0.57170   0.42830   0.01267  Uiso   1.00
C42    C     0.00000   0.79140   0.20860   0.01267  Uiso   1.00
C43    C     0.00000   0.64890   0.35110   0.01267  Uiso   1.00
C44    C     0.00000   0.86860   0.13140   0.01267  Uiso   1.00
C45    C     0.00000   0.42830   0.57170   0.01267  Uiso   1.00
C46    C     0.00000   0.20860   0.79140   0.01267  Uiso   1.00
C47    C     0.00000   0.35110   0.64890   0.01267  Uiso   1.00
C48    C     0.00000   0.13140   0.86860   0.01267  Uiso   1.00
C49    C     0.53780   0.64840   0.27600   0.01267  Uiso   1.00
C50    C     0.57100   0.55630   0.30170   0.01267  Uiso   1.00
C51    C     0.53660   0.52670   0.40010   0.01267  Uiso   1.00
C52    C     0.46220   0.35160   0.72400   0.01267  Uiso   1.00
C53    C     0.42900   0.44370   0.69830   0.01267  Uiso   1.00
C54    C     0.46340   0.47330   0.59990   0.01267  Uiso   1.00
C55    C     0.81380   0.72400   0.64840   0.01267  Uiso   1.00
C56    C     0.87270   0.69830   0.55630   0.01267  Uiso   1.00
C57    C     0.93670   0.59990   0.52670   0.01267  Uiso   1.00
C58    C     0.18620   0.27600   0.35160   0.01267  Uiso   1.00
C59    C     0.12730   0.30170   0.44370   0.01267  Uiso   1.00
C60    C     0.06330   0.40010   0.47330   0.01267  Uiso   1.00
C61    C     0.46220   0.72400   0.35160   0.01267  Uiso   1.00
C62    C     0.42900   0.69830   0.44370   0.01267  Uiso   1.00
C63    C     0.46340   0.59990   0.47330   0.01267  Uiso   1.00
C64    C     0.53780   0.27600   0.64840   0.01267  Uiso   1.00
C65    C     0.57100   0.30170   0.55630   0.01267  Uiso   1.00
C66    C     0.53660   0.40010   0.52670   0.01267  Uiso   1.00
C67    C     0.18620   0.35160   0.27600   0.01267  Uiso   1.00
C68    C     0.12730   0.44370   0.30170   0.01267  Uiso   1.00
C69    C     0.06330   0.47330   0.40010   0.01267  Uiso   1.00
C70    C     0.81380   0.64840   0.72400   0.01267  Uiso   1.00
C71    C     0.87270   0.55630   0.69830   0.01267  Uiso   1.00
C72    C     0.93670   0.52670   0.59990   0.01267  Uiso   1.00
N1     N     0.63420   1.00000   0.00000   0.01267  Uiso   1.00
N2     N     0.36580   1.00000   0.00000   0.01267  Uiso   1.00
O1     O     0.78290   0.10220   0.10220   0.01267  Uiso   1.00
O2     O     0.98730   0.89780   0.89780   0.01267  Uiso   1.00
O3     O     0.88510   0.89780   0.10220   0.01267  Uiso   1.00
O4     O     0.88510   0.10220   0.89780   0.01267  Uiso   1.00
O5     O     0.21710   0.89780   0.89780   0.01267  Uiso   1.00
O6     O     0.01270   0.10220   0.10220   0.01267  Uiso   1.00
O7     O     0.11490   0.89780   0.10220   0.01267  Uiso   1.00
O8     O     0.11490   0.10220   0.89780   0.01267  Uiso   1.00
