data_UDICER_clean
_audit_creation_date              2014-07-02
_audit_creation_method            'Materials Studio'
_symmetry_space_group_name_H-M    'P1'
_symmetry_Int_Tables_number       1
_symmetry_cell_setting            triclinic
loop_
_symmetry_equiv_pos_as_xyz
  x,y,z
_cell_length_a                    7.2031
_cell_length_b                    9.8905
_cell_length_c                    16.8809
_cell_angle_alpha                 90.0000
_cell_angle_beta                  90.0000
_cell_angle_gamma                 109.2860
loop_
_atom_site_label
_atom_site_type_symbol
_atom_site_fract_x
_atom_site_fract_y
_atom_site_fract_z
_atom_site_U_iso_or_equiv
_atom_site_adp_type
_atom_site_occupancy
Bi1    Bi    0.52644   0.22158   0.04072   0.01267  Uiso   1.00
Bi2    Bi    0.97356   0.77842   0.54072   0.01267  Uiso   1.00
Bi3    Bi    0.47356   0.77842   0.95928   0.01267  Uiso   1.00
Bi4    Bi    0.02644   0.22158   0.45928   0.01267  Uiso   1.00
C1     C     0.18033   0.83987   0.23487   0.01267  Uiso   1.00
C2     C     0.04897   0.73530   0.28323   0.01267  Uiso   1.00
C3     C     0.91791   0.61125   0.24612   0.01267  Uiso   1.00
C4     C     0.90819   0.60072   0.16222   0.01267  Uiso   1.00
C5     C     0.02121   0.71526   0.11713   0.01267  Uiso   1.00
C6     C     0.16771   0.82991   0.15146   0.01267  Uiso   1.00
C7     C     0.30765   0.93762   0.10246   0.01267  Uiso   1.00
C8     C     0.76923   0.47403   0.12283   0.01267  Uiso   1.00
C9     C     0.05922   0.74533   0.37189   0.01267  Uiso   1.00
C10    C     0.31967   0.16013   0.73487   0.01267  Uiso   1.00
C11    C     0.45103   0.26470   0.78323   0.01267  Uiso   1.00
C12    C     0.58209   0.38875   0.74612   0.01267  Uiso   1.00
C13    C     0.59181   0.39928   0.66222   0.01267  Uiso   1.00
C14    C     0.47879   0.28474   0.61713   0.01267  Uiso   1.00
C15    C     0.33229   0.17009   0.65146   0.01267  Uiso   1.00
C16    C     0.19235   0.06238   0.60246   0.01267  Uiso   1.00
C17    C     0.73077   0.52597   0.62283   0.01267  Uiso   1.00
C18    C     0.44078   0.25467   0.87189   0.01267  Uiso   1.00
C19    C     0.81967   0.16013   0.76513   0.01267  Uiso   1.00
C20    C     0.95103   0.26470   0.71677   0.01267  Uiso   1.00
C21    C     0.08209   0.38875   0.75388   0.01267  Uiso   1.00
C22    C     0.09181   0.39928   0.83778   0.01267  Uiso   1.00
C23    C     0.97879   0.28474   0.88287   0.01267  Uiso   1.00
C24    C     0.83229   0.17009   0.84854   0.01267  Uiso   1.00
C25    C     0.69235   0.06238   0.89754   0.01267  Uiso   1.00
C26    C     0.23077   0.52597   0.87717   0.01267  Uiso   1.00
C27    C     0.94078   0.25467   0.62811   0.01267  Uiso   1.00
C28    C     0.68033   0.83987   0.26513   0.01267  Uiso   1.00
C29    C     0.54897   0.73530   0.21677   0.01267  Uiso   1.00
C30    C     0.41791   0.61125   0.25388   0.01267  Uiso   1.00
C31    C     0.40819   0.60072   0.33778   0.01267  Uiso   1.00
C32    C     0.52121   0.71526   0.38287   0.01267  Uiso   1.00
C33    C     0.66771   0.82991   0.34854   0.01267  Uiso   1.00
C34    C     0.80765   0.93762   0.39754   0.01267  Uiso   1.00
C35    C     0.26923   0.47403   0.37717   0.01267  Uiso   1.00
C36    C     0.55922   0.74533   0.12811   0.01267  Uiso   1.00
O1     O     0.30930   0.06650   0.12520   0.01267  Uiso   1.00
O2     O     0.30590   0.89690   0.02200   0.01267  Uiso   1.00
O3     O     0.15550   0.84780   0.41830   0.01267  Uiso   1.00
O4     O     0.93330   0.65200   0.41600   0.01267  Uiso   1.00
O5     O     0.62030   0.38700   0.15800   0.01267  Uiso   1.00
O6     O     0.78890   0.45760   0.04640   0.01267  Uiso   1.00
O7     O     0.19070   0.93350   0.62520   0.01267  Uiso   1.00
O8     O     0.19410   0.10310   0.52200   0.01267  Uiso   1.00
O9     O     0.34450   0.15220   0.91830   0.01267  Uiso   1.00
O10    O     0.56670   0.34800   0.91600   0.01267  Uiso   1.00
O11    O     0.87970   0.61300   0.65800   0.01267  Uiso   1.00
O12    O     0.71110   0.54240   0.54640   0.01267  Uiso   1.00
O13    O     0.69070   0.93350   0.87480   0.01267  Uiso   1.00
O14    O     0.69410   0.10310   0.97800   0.01267  Uiso   1.00
O15    O     0.84450   0.15220   0.58170   0.01267  Uiso   1.00
O16    O     0.06670   0.34800   0.58400   0.01267  Uiso   1.00
O17    O     0.37970   0.61300   0.84200   0.01267  Uiso   1.00
O18    O     0.21110   0.54240   0.95360   0.01267  Uiso   1.00
O19    O     0.80930   0.06650   0.37480   0.01267  Uiso   1.00
O20    O     0.80590   0.89690   0.47800   0.01267  Uiso   1.00
O21    O     0.65550   0.84780   0.08170   0.01267  Uiso   1.00
O22    O     0.43330   0.65200   0.08400   0.01267  Uiso   1.00
O23    O     0.12030   0.38700   0.34200   0.01267  Uiso   1.00
O24    O     0.28890   0.45760   0.45360   0.01267  Uiso   1.00
