data_UDIHOF_charged
_audit_creation_date              2014-07-02
_audit_creation_method            'Materials Studio'
_symmetry_space_group_name_H-M    'P1'
_symmetry_Int_Tables_number       1
_symmetry_cell_setting            triclinic
loop_
_symmetry_equiv_pos_as_xyz
  x,y,z
_cell_length_a                    16.7620
_cell_length_b                    18.4125
_cell_length_c                    18.4125
_cell_angle_alpha                 110.0530
_cell_angle_beta                  116.6500
_cell_angle_gamma                 63.3500
loop_
_atom_site_label
_atom_site_type_symbol
_atom_site_fract_x
_atom_site_fract_y
_atom_site_fract_z
_atom_site_U_iso_or_equiv
_atom_site_adp_type
_atom_site_occupancy
Ni1    Ni    0.97085   0.60035   0.39965   0.01267  Uiso   1.00
Ni2    Ni    0.95311   0.72309   0.27691   0.01267  Uiso   1.00
Ni3    Ni    0.17436   0.60131   0.39869   0.01267  Uiso   1.00
H1     H     0.72420   0.63560   0.06280   0.01267  Uiso   1.00
H2     H     0.57480   0.62510   0.98150   0.01267  Uiso   1.00
H3     H     0.56470   0.57770   0.17230   0.01267  Uiso   1.00
H4     H     0.71520   0.58020   0.25100   0.01267  Uiso   1.00
H5     H     0.13360   0.64800   0.99200   0.01267  Uiso   1.00
H6     H     0.15170   0.61310   0.80210   0.01267  Uiso   1.00
H7     H     0.38190   0.62550   0.80090   0.01267  Uiso   1.00
H8     H     0.30860   0.62890   0.66090   0.01267  Uiso   1.00
H9     H     0.30660   0.55900   0.24160   0.01267  Uiso   1.00
H10    H     0.05690   0.65590   0.07310   0.01267  Uiso   1.00
H11    H     0.38460   0.55100   0.16120   0.01267  Uiso   1.00
H12    H     0.07950   0.61610   0.66410   0.01267  Uiso   1.00
H13    H     0.72420   0.93720   0.36440   0.01267  Uiso   1.00
H14    H     0.57480   0.01850   0.37490   0.01267  Uiso   1.00
H15    H     0.56470   0.82770   0.42230   0.01267  Uiso   1.00
H16    H     0.71520   0.74900   0.41980   0.01267  Uiso   1.00
H17    H     0.13360   0.00800   0.35200   0.01267  Uiso   1.00
H18    H     0.15170   0.19790   0.38690   0.01267  Uiso   1.00
H19    H     0.38190   0.19910   0.37450   0.01267  Uiso   1.00
H20    H     0.30860   0.33910   0.37110   0.01267  Uiso   1.00
H21    H     0.30660   0.75840   0.44100   0.01267  Uiso   1.00
H22    H     0.05690   0.92690   0.34410   0.01267  Uiso   1.00
H23    H     0.38460   0.83880   0.44900   0.01267  Uiso   1.00
H24    H     0.07950   0.33590   0.38390   0.01267  Uiso   1.00
C1     C     0.83200   0.61682   0.22216   0.01267  Uiso   1.00
C2     C     0.73518   0.60979   0.16673   0.01267  Uiso   1.00
C3     C     0.69230   0.62347   0.08479   0.01267  Uiso   1.00
C4     C     0.60170   0.61882   0.03640   0.01267  Uiso   1.00
C5     C     0.55240   0.60495   0.07029   0.01267  Uiso   1.00
C6     C     0.59670   0.58963   0.15013   0.01267  Uiso   1.00
C7     C     0.68680   0.59144   0.19768   0.01267  Uiso   1.00
C8     C     0.45300   0.60473   0.02235   0.01267  Uiso   1.00
C9     C     0.13980   0.61970   0.55468   0.01267  Uiso   1.00
C10    C     0.26730   0.60279   0.07001   0.01267  Uiso   1.00
C11    C     0.16920   0.63131   0.04309   0.01267  Uiso   1.00
C12    C     0.18370   0.61696   0.77420   0.01267  Uiso   1.00
C13    C     0.27360   0.62113   0.81687   0.01267  Uiso   1.00
C14    C     0.32030   0.62434   0.77366   0.01267  Uiso   1.00
C15    C     0.27640   0.62584   0.68916   0.01267  Uiso   1.00
C16    C     0.32180   0.61648   0.90650   0.01267  Uiso   1.00
C17    C     0.12510   0.61736   0.22328   0.01267  Uiso   1.00
C18    C     0.17400   0.60980   0.16752   0.01267  Uiso   1.00
C19    C     0.27110   0.57808   0.19172   0.01267  Uiso   1.00
C20    C     0.12320   0.63549   0.09171   0.01267  Uiso   1.00
C21    C     0.31840   0.57360   0.14360   0.01267  Uiso   1.00
C22    C     0.14060   0.61833   0.69123   0.01267  Uiso   1.00
C23    C     0.18610   0.62289   0.64703   0.01267  Uiso   1.00
C24    C     0.31910   0.60371   0.02331   0.01267  Uiso   1.00
C25    C     0.83200   0.77784   0.38318   0.01267  Uiso   1.00
C26    C     0.73518   0.83327   0.39021   0.01267  Uiso   1.00
C27    C     0.69230   0.91521   0.37653   0.01267  Uiso   1.00
C28    C     0.60170   0.96360   0.38118   0.01267  Uiso   1.00
C29    C     0.55240   0.92971   0.39505   0.01267  Uiso   1.00
C30    C     0.59670   0.84987   0.41037   0.01267  Uiso   1.00
C31    C     0.68680   0.80232   0.40856   0.01267  Uiso   1.00
C32    C     0.45300   0.97765   0.39527   0.01267  Uiso   1.00
C33    C     0.13980   0.44532   0.38030   0.01267  Uiso   1.00
C34    C     0.26730   0.92999   0.39721   0.01267  Uiso   1.00
C35    C     0.16920   0.95691   0.36869   0.01267  Uiso   1.00
C36    C     0.18370   0.22580   0.38304   0.01267  Uiso   1.00
C37    C     0.27360   0.18313   0.37887   0.01267  Uiso   1.00
C38    C     0.32030   0.22634   0.37566   0.01267  Uiso   1.00
C39    C     0.27640   0.31084   0.37416   0.01267  Uiso   1.00
C40    C     0.32180   0.09350   0.38352   0.01267  Uiso   1.00
C41    C     0.12510   0.77672   0.38264   0.01267  Uiso   1.00
C42    C     0.17400   0.83248   0.39020   0.01267  Uiso   1.00
C43    C     0.27110   0.80828   0.42192   0.01267  Uiso   1.00
C44    C     0.12320   0.90829   0.36451   0.01267  Uiso   1.00
C45    C     0.31840   0.85640   0.42640   0.01267  Uiso   1.00
C46    C     0.14060   0.30877   0.38167   0.01267  Uiso   1.00
C47    C     0.18610   0.35297   0.37711   0.01267  Uiso   1.00
C48    C     0.31910   0.97669   0.39629   0.01267  Uiso   1.00
N1     N     0.41257   0.61353   0.94307   0.01267  Uiso   1.00
N2     N     0.27051   0.61471   0.94369   0.01267  Uiso   1.00
N3     N     0.40953   0.59843   0.06459   0.01267  Uiso   1.00
N4     N     0.41257   0.05693   0.38647   0.01267  Uiso   1.00
N5     N     0.27051   0.05631   0.38529   0.01267  Uiso   1.00
N6     N     0.40953   0.93541   0.40157   0.01267  Uiso   1.00
O1     O     0.87344   0.58150   0.28224   0.01267  Uiso   1.00
O2     O     0.86082   0.65810   0.20380   0.01267  Uiso   1.00
O3     O     0.05869   0.61599   0.52125   0.01267  Uiso   1.00
O4     O     0.18803   0.62086   0.51970   0.01267  Uiso   1.00
O5     O     0.17792   0.58100   0.28328   0.01267  Uiso   1.00
O6     O     0.03793   0.65907   0.20451   0.01267  Uiso   1.00
O7     O     0.87344   0.71776   0.41850   0.01267  Uiso   1.00
O8     O     0.86082   0.79620   0.34190   0.01267  Uiso   1.00
O9     O     0.05869   0.47875   0.38401   0.01267  Uiso   1.00
O10    O     0.18803   0.48030   0.37914   0.01267  Uiso   1.00
O11    O     0.17792   0.71672   0.41900   0.01267  Uiso   1.00
O12    O     0.03793   0.79549   0.34093   0.01267  Uiso   1.00
O13    O     0.89550   0.56228   0.43772   0.01267  Uiso   1.00
O14    O     0.86890   0.80810   0.19190   0.01267  Uiso   1.00
O15    O     0.03099   0.64273   0.35727   0.01267  Uiso   1.00
O16    O     0.32470   0.55849   0.44151   0.01267  Uiso   1.00
Ni4    Ni    0.02915   0.39965   0.60035   0.01267  Uiso   1.00
Ni5    Ni    0.04689   0.27691   0.72309   0.01267  Uiso   1.00
Ni6    Ni    0.82564   0.39869   0.60131   0.01267  Uiso   1.00
H25    H     0.27580   0.06280   0.63560   0.01267  Uiso   1.00
H26    H     0.42520   0.98150   0.62510   0.01267  Uiso   1.00
H27    H     0.43530   0.17230   0.57770   0.01267  Uiso   1.00
H28    H     0.28480   0.25100   0.58020   0.01267  Uiso   1.00
H29    H     0.86640   0.99200   0.64800   0.01267  Uiso   1.00
H30    H     0.84830   0.80210   0.61310   0.01267  Uiso   1.00
H31    H     0.61810   0.80090   0.62550   0.01267  Uiso   1.00
H32    H     0.69140   0.66090   0.62890   0.01267  Uiso   1.00
H33    H     0.69340   0.24160   0.55900   0.01267  Uiso   1.00
H34    H     0.94310   0.07310   0.65590   0.01267  Uiso   1.00
H35    H     0.61540   0.16120   0.55100   0.01267  Uiso   1.00
H36    H     0.92050   0.66410   0.61610   0.01267  Uiso   1.00
H37    H     0.27580   0.36440   0.93720   0.01267  Uiso   1.00
H38    H     0.42520   0.37490   0.01850   0.01267  Uiso   1.00
H39    H     0.43530   0.42230   0.82770   0.01267  Uiso   1.00
H40    H     0.28480   0.41980   0.74900   0.01267  Uiso   1.00
H41    H     0.86640   0.35200   0.00800   0.01267  Uiso   1.00
H42    H     0.84830   0.38690   0.19790   0.01267  Uiso   1.00
H43    H     0.61810   0.37450   0.19910   0.01267  Uiso   1.00
H44    H     0.69140   0.37110   0.33910   0.01267  Uiso   1.00
H45    H     0.69340   0.44100   0.75840   0.01267  Uiso   1.00
H46    H     0.94310   0.34410   0.92690   0.01267  Uiso   1.00
H47    H     0.61540   0.44900   0.83880   0.01267  Uiso   1.00
H48    H     0.92050   0.38390   0.33590   0.01267  Uiso   1.00
C49    C     0.16800   0.22216   0.61682   0.01267  Uiso   1.00
C50    C     0.26482   0.16673   0.60979   0.01267  Uiso   1.00
C51    C     0.30770   0.08479   0.62347   0.01267  Uiso   1.00
C52    C     0.39830   0.03640   0.61882   0.01267  Uiso   1.00
C53    C     0.44760   0.07029   0.60495   0.01267  Uiso   1.00
C54    C     0.40330   0.15013   0.58963   0.01267  Uiso   1.00
C55    C     0.31320   0.19768   0.59144   0.01267  Uiso   1.00
C56    C     0.54700   0.02235   0.60473   0.01267  Uiso   1.00
C57    C     0.86020   0.55468   0.61970   0.01267  Uiso   1.00
C58    C     0.73270   0.07001   0.60279   0.01267  Uiso   1.00
C59    C     0.83080   0.04309   0.63131   0.01267  Uiso   1.00
C60    C     0.81630   0.77420   0.61696   0.01267  Uiso   1.00
C61    C     0.72640   0.81687   0.62113   0.01267  Uiso   1.00
C62    C     0.67970   0.77366   0.62434   0.01267  Uiso   1.00
C63    C     0.72360   0.68916   0.62584   0.01267  Uiso   1.00
C64    C     0.67820   0.90650   0.61648   0.01267  Uiso   1.00
C65    C     0.87490   0.22328   0.61736   0.01267  Uiso   1.00
C66    C     0.82600   0.16752   0.60980   0.01267  Uiso   1.00
C67    C     0.72890   0.19172   0.57808   0.01267  Uiso   1.00
C68    C     0.87680   0.09171   0.63549   0.01267  Uiso   1.00
C69    C     0.68160   0.14360   0.57360   0.01267  Uiso   1.00
C70    C     0.85940   0.69123   0.61833   0.01267  Uiso   1.00
C71    C     0.81390   0.64703   0.62289   0.01267  Uiso   1.00
C72    C     0.68090   0.02331   0.60371   0.01267  Uiso   1.00
C73    C     0.16800   0.38318   0.77784   0.01267  Uiso   1.00
C74    C     0.26482   0.39021   0.83327   0.01267  Uiso   1.00
C75    C     0.30770   0.37653   0.91521   0.01267  Uiso   1.00
C76    C     0.39830   0.38118   0.96360   0.01267  Uiso   1.00
C77    C     0.44760   0.39505   0.92971   0.01267  Uiso   1.00
C78    C     0.40330   0.41037   0.84987   0.01267  Uiso   1.00
C79    C     0.31320   0.40856   0.80232   0.01267  Uiso   1.00
C80    C     0.54700   0.39527   0.97765   0.01267  Uiso   1.00
C81    C     0.86020   0.38030   0.44532   0.01267  Uiso   1.00
C82    C     0.73270   0.39721   0.92999   0.01267  Uiso   1.00
C83    C     0.83080   0.36869   0.95691   0.01267  Uiso   1.00
C84    C     0.81630   0.38304   0.22580   0.01267  Uiso   1.00
C85    C     0.72640   0.37887   0.18313   0.01267  Uiso   1.00
C86    C     0.67970   0.37566   0.22634   0.01267  Uiso   1.00
C87    C     0.72360   0.37416   0.31084   0.01267  Uiso   1.00
C88    C     0.67820   0.38352   0.09350   0.01267  Uiso   1.00
C89    C     0.87490   0.38264   0.77672   0.01267  Uiso   1.00
C90    C     0.82600   0.39020   0.83248   0.01267  Uiso   1.00
C91    C     0.72890   0.42192   0.80828   0.01267  Uiso   1.00
C92    C     0.87680   0.36451   0.90829   0.01267  Uiso   1.00
C93    C     0.68160   0.42640   0.85640   0.01267  Uiso   1.00
C94    C     0.85940   0.38167   0.30877   0.01267  Uiso   1.00
C95    C     0.81390   0.37711   0.35297   0.01267  Uiso   1.00
C96    C     0.68090   0.39629   0.97669   0.01267  Uiso   1.00
N7     N     0.58743   0.94307   0.61353   0.01267  Uiso   1.00
N8     N     0.72949   0.94369   0.61471   0.01267  Uiso   1.00
N9     N     0.59047   0.06459   0.59843   0.01267  Uiso   1.00
N10    N     0.58743   0.38647   0.05693   0.01267  Uiso   1.00
N11    N     0.72949   0.38529   0.05631   0.01267  Uiso   1.00
N12    N     0.59047   0.40157   0.93541   0.01267  Uiso   1.00
O17    O     0.12656   0.28224   0.58150   0.01267  Uiso   1.00
O18    O     0.13918   0.20380   0.65810   0.01267  Uiso   1.00
O19    O     0.94131   0.52125   0.61599   0.01267  Uiso   1.00
O20    O     0.81197   0.51970   0.62086   0.01267  Uiso   1.00
O21    O     0.82208   0.28328   0.58100   0.01267  Uiso   1.00
O22    O     0.96207   0.20451   0.65907   0.01267  Uiso   1.00
O23    O     0.12656   0.41850   0.71776   0.01267  Uiso   1.00
O24    O     0.13918   0.34190   0.79620   0.01267  Uiso   1.00
O25    O     0.94131   0.38401   0.47875   0.01267  Uiso   1.00
O26    O     0.81197   0.37914   0.48030   0.01267  Uiso   1.00
O27    O     0.82208   0.41900   0.71672   0.01267  Uiso   1.00
O28    O     0.96207   0.34093   0.79549   0.01267  Uiso   1.00
O29    O     0.10450   0.43772   0.56228   0.01267  Uiso   1.00
O30    O     0.13110   0.19190   0.80810   0.01267  Uiso   1.00
O31    O     0.96901   0.35727   0.64273   0.01267  Uiso   1.00
O32    O     0.67530   0.44151   0.55849   0.01267  Uiso   1.00
