data_UFATEA01_clean
_audit_creation_date              2014-07-02
_audit_creation_method            'Materials Studio'
_symmetry_space_group_name_H-M    'P1'
_symmetry_Int_Tables_number       1
_symmetry_cell_setting            triclinic
loop_
_symmetry_equiv_pos_as_xyz
  x,y,z
_cell_length_a                    6.3559
_cell_length_b                    12.4966
_cell_length_c                    10.3785
_cell_angle_alpha                 90.0000
_cell_angle_beta                  90.0000
_cell_angle_gamma                 90.0000
loop_
_atom_site_label
_atom_site_type_symbol
_atom_site_fract_x
_atom_site_fract_y
_atom_site_fract_z
_atom_site_U_iso_or_equiv
_atom_site_adp_type
_atom_site_occupancy
Ni1    Ni    0.00000   0.50000   0.04790   0.01267  Uiso   1.00
Ni2    Ni    0.50000   0.00000   0.54790   0.01267  Uiso   1.00
H1     H     0.99710   0.24990   0.67570   0.01267  Uiso   1.00
H2     H     0.87530   0.37890   0.80930   0.01267  Uiso   1.00
H3     H     0.40990   0.39100   0.99550   0.01267  Uiso   1.00
H4     H     0.54860   0.25890   0.86390   0.01267  Uiso   1.00
H5     H     0.00290   0.75010   0.67570   0.01267  Uiso   1.00
H6     H     0.12470   0.62110   0.80930   0.01267  Uiso   1.00
H7     H     0.59010   0.60900   0.99550   0.01267  Uiso   1.00
H8     H     0.45140   0.74110   0.86390   0.01267  Uiso   1.00
H9     H     0.50290   0.74990   0.17570   0.01267  Uiso   1.00
H10    H     0.62470   0.87890   0.30930   0.01267  Uiso   1.00
H11    H     0.09010   0.89100   0.49550   0.01267  Uiso   1.00
H12    H     0.95140   0.75890   0.36390   0.01267  Uiso   1.00
H13    H     0.49710   0.25010   0.17570   0.01267  Uiso   1.00
H14    H     0.37530   0.12110   0.30930   0.01267  Uiso   1.00
H15    H     0.90990   0.10900   0.49550   0.01267  Uiso   1.00
H16    H     0.04860   0.24110   0.36390   0.01267  Uiso   1.00
C1     C     0.37140   0.15150   0.67440   0.01267  Uiso   1.00
C2     C     0.28410   0.23770   0.75770   0.01267  Uiso   1.00
C3     C     0.08280   0.27670   0.74080   0.01267  Uiso   1.00
C4     C     0.01220   0.35420   0.82020   0.01267  Uiso   1.00
C5     C     0.32800   0.36140   0.93040   0.01267  Uiso   1.00
C6     C     0.41080   0.28210   0.85270   0.01267  Uiso   1.00
C7     C     0.62860   0.84850   0.67440   0.01267  Uiso   1.00
C8     C     0.71590   0.76230   0.75770   0.01267  Uiso   1.00
C9     C     0.91720   0.72330   0.74080   0.01267  Uiso   1.00
C10    C     0.98780   0.64580   0.82020   0.01267  Uiso   1.00
C11    C     0.67200   0.63860   0.93040   0.01267  Uiso   1.00
C12    C     0.58920   0.71790   0.85270   0.01267  Uiso   1.00
C13    C     0.12860   0.65150   0.17440   0.01267  Uiso   1.00
C14    C     0.21590   0.73770   0.25770   0.01267  Uiso   1.00
C15    C     0.41720   0.77670   0.24080   0.01267  Uiso   1.00
C16    C     0.48780   0.85420   0.32020   0.01267  Uiso   1.00
C17    C     0.17200   0.86140   0.43040   0.01267  Uiso   1.00
C18    C     0.08920   0.78210   0.35270   0.01267  Uiso   1.00
C19    C     0.87140   0.34850   0.17440   0.01267  Uiso   1.00
C20    C     0.78410   0.26230   0.25770   0.01267  Uiso   1.00
C21    C     0.58280   0.22330   0.24080   0.01267  Uiso   1.00
C22    C     0.51220   0.14580   0.32020   0.01267  Uiso   1.00
C23    C     0.82800   0.13860   0.43040   0.01267  Uiso   1.00
C24    C     0.91080   0.21790   0.35270   0.01267  Uiso   1.00
N1     N     0.12740   0.39670   0.91230   0.01267  Uiso   1.00
N2     N     0.87260   0.60330   0.91230   0.01267  Uiso   1.00
N3     N     0.37260   0.89670   0.41230   0.01267  Uiso   1.00
N4     N     0.62740   0.10330   0.41230   0.01267  Uiso   1.00
O1     O     0.25640   0.10550   0.58930   0.01267  Uiso   1.00
O2     O     0.55760   0.11610   0.69310   0.01267  Uiso   1.00
O3     O     0.74360   0.89450   0.58930   0.01267  Uiso   1.00
O4     O     0.44240   0.88390   0.69310   0.01267  Uiso   1.00
O5     O     0.24360   0.60550   0.08930   0.01267  Uiso   1.00
O6     O     0.94240   0.61610   0.19310   0.01267  Uiso   1.00
O7     O     0.75640   0.39450   0.08930   0.01267  Uiso   1.00
O8     O     0.05760   0.38390   0.19310   0.01267  Uiso   1.00
