data_UFENAW_clean
_audit_creation_date              2014-07-02
_audit_creation_method            'Materials Studio'
_symmetry_space_group_name_H-M    'P1'
_symmetry_Int_Tables_number       1
_symmetry_cell_setting            triclinic
loop_
_symmetry_equiv_pos_as_xyz
  x,y,z
_cell_length_a                    9.7190
_cell_length_b                    17.3144
_cell_length_c                    18.4230
_cell_angle_alpha                 90.5164
_cell_angle_beta                  90.0000
_cell_angle_gamma                 106.3000
loop_
_atom_site_label
_atom_site_type_symbol
_atom_site_fract_x
_atom_site_fract_y
_atom_site_fract_z
_atom_site_U_iso_or_equiv
_atom_site_adp_type
_atom_site_occupancy
Zn1    Zn    0.34352   0.27464   0.72022   0.01267  Uiso   1.00
Zn2    Zn    0.23842   0.88932   0.70678   0.01267  Uiso   1.00
Zn3    Zn    0.29164   0.08208   0.71033   0.01267  Uiso   1.00
Zn4    Zn    0.93112   0.27464   0.22022   0.01267  Uiso   1.00
Zn5    Zn    0.65090   0.88932   0.20678   0.01267  Uiso   1.00
Zn6    Zn    0.79044   0.08208   0.21033   0.01267  Uiso   1.00
C1     C     0.47450   0.20820   0.60890   0.01267  Uiso   1.00
C2     C     0.12000   0.95520   0.81600   0.01267  Uiso   1.00
C3     C     0.91470   0.96380   0.02170   0.01267  Uiso   1.00
C4     C     0.67050   0.19700   0.40090   0.01267  Uiso   1.00
C5     C     0.28270   0.49900   0.70900   0.01267  Uiso   1.00
C6     C     0.30260   0.66120   0.72400   0.01267  Uiso   1.00
C7     C     0.53420   0.20200   0.53470   0.01267  Uiso   1.00
C8     C     0.74510   0.19620   0.33390   0.01267  Uiso   1.00
C9     C     0.04000   0.95560   0.88700   0.01267  Uiso   1.00
C10    C     0.26900   0.41360   0.69940   0.01267  Uiso   1.00
C11    C     0.84470   0.96920   0.09550   0.01267  Uiso   1.00
C12    C     0.30310   0.75220   0.72400   0.01267  Uiso   1.00
C13    C     0.00720   0.02840   0.91140   0.01267  Uiso   1.00
C14    C     0.55980   0.13560   0.51710   0.01267  Uiso   1.00
C15    C     0.94680   0.89700   0.00320   0.01267  Uiso   1.00
C16    C     0.64470   0.26940   0.42730   0.01267  Uiso   1.00
C17    C     0.95930   0.03060   0.98090   0.01267  Uiso   1.00
C18    C     0.57970   0.26540   0.49290   0.01267  Uiso   1.00
C19    C     0.63140   0.12860   0.44770   0.01267  Uiso   1.00
C20    C     0.01240   0.88680   0.93320   0.01267  Uiso   1.00
C21    C     0.16260   0.52720   0.68800   0.01267  Uiso   1.00
C22    C     0.41010   0.63420   0.74110   0.01267  Uiso   1.00
C23    C     0.17300   0.61400   0.69000   0.01267  Uiso   1.00
C24    C     0.40330   0.55860   0.72920   0.01267  Uiso   1.00
C25    C     0.73370   0.20820   0.10890   0.01267  Uiso   1.00
C26    C     0.83520   0.95520   0.31600   0.01267  Uiso   1.00
C27    C     0.04910   0.96380   0.52170   0.01267  Uiso   1.00
C28    C     0.52650   0.19700   0.90090   0.01267  Uiso   1.00
C29    C     0.21630   0.49900   0.20900   0.01267  Uiso   1.00
C30    C     0.35860   0.66120   0.22400   0.01267  Uiso   1.00
C31    C     0.66780   0.20200   0.03470   0.01267  Uiso   1.00
C32    C     0.45110   0.19620   0.83390   0.01267  Uiso   1.00
C33    C     0.91560   0.95560   0.38700   0.01267  Uiso   1.00
C34    C     0.14460   0.41360   0.19940   0.01267  Uiso   1.00
C35    C     0.12450   0.96920   0.59550   0.01267  Uiso   1.00
C36    C     0.44910   0.75220   0.22400   0.01267  Uiso   1.00
C37    C     0.02120   0.02840   0.41140   0.01267  Uiso   1.00
C38    C     0.57580   0.13560   0.01710   0.01267  Uiso   1.00
C39    C     0.95020   0.89700   0.50320   0.01267  Uiso   1.00
C40    C     0.62470   0.26940   0.92730   0.01267  Uiso   1.00
C41    C     0.07130   0.03060   0.48090   0.01267  Uiso   1.00
C42    C     0.68570   0.26540   0.99290   0.01267  Uiso   1.00
C43    C     0.49720   0.12860   0.94770   0.01267  Uiso   1.00
C44    C     0.87440   0.88680   0.43320   0.01267  Uiso   1.00
C45    C     0.36460   0.52720   0.18800   0.01267  Uiso   1.00
C46    C     0.22410   0.63420   0.24110   0.01267  Uiso   1.00
C47    C     0.44100   0.61400   0.19000   0.01267  Uiso   1.00
C48    C     0.15530   0.55860   0.22920   0.01267  Uiso   1.00
O1     O     0.14830   0.88840   0.80160   0.01267  Uiso   1.00
O2     O     0.44580   0.27040   0.62340   0.01267  Uiso   1.00
O3     O     0.78660   0.90060   0.12580   0.01267  Uiso   1.00
O4     O     0.80270   0.26140   0.30280   0.01267  Uiso   1.00
O5     O     0.84330   0.03560   0.11910   0.01267  Uiso   1.00
O6     O     0.74690   0.12720   0.31090   0.01267  Uiso   1.00
O7     O     0.45510   0.15120   0.65040   0.01267  Uiso   1.00
O8     O     0.22280   0.77460   0.69730   0.01267  Uiso   1.00
O9     O     0.12860   0.01480   0.77540   0.01267  Uiso   1.00
O10    O     0.35140   0.38500   0.74330   0.01267  Uiso   1.00
O11    O     0.17010   0.36920   0.66370   0.01267  Uiso   1.00
O12    O     0.38360   0.79440   0.77400   0.01267  Uiso   1.00
O13    O     0.74010   0.88840   0.30160   0.01267  Uiso   1.00
O14    O     0.82460   0.27040   0.12340   0.01267  Uiso   1.00
O15    O     0.11400   0.90060   0.62580   0.01267  Uiso   1.00
O16    O     0.45870   0.26140   0.80280   0.01267  Uiso   1.00
O17    O     0.19230   0.03560   0.61910   0.01267  Uiso   1.00
O18    O     0.38030   0.12720   0.81090   0.01267  Uiso   1.00
O19    O     0.69610   0.15120   0.15040   0.01267  Uiso   1.00
O20    O     0.55180   0.77460   0.19730   0.01267  Uiso   1.00
O21    O     0.88620   0.01480   0.27540   0.01267  Uiso   1.00
O22    O     0.03360   0.38500   0.24330   0.01267  Uiso   1.00
O23    O     0.19910   0.36920   0.16370   0.01267  Uiso   1.00
O24    O     0.41080   0.79440   0.27400   0.01267  Uiso   1.00
