data_UFIREI_clean
_audit_creation_date              2014-07-02
_audit_creation_method            'Materials Studio'
_symmetry_space_group_name_H-M    'P1'
_symmetry_Int_Tables_number       1
_symmetry_cell_setting            triclinic
loop_
_symmetry_equiv_pos_as_xyz
  x,y,z
_cell_length_a                    19.8500
_cell_length_b                    19.8500
_cell_length_c                    30.2268
_cell_angle_alpha                 70.8313
_cell_angle_beta                  70.8313
_cell_angle_gamma                 60.0000
loop_
_atom_site_label
_atom_site_type_symbol
_atom_site_fract_x
_atom_site_fract_y
_atom_site_fract_z
_atom_site_U_iso_or_equiv
_atom_site_adp_type
_atom_site_occupancy
Zn1    Zn    0.38209   0.32605   0.78202   0.01267  Uiso   1.00
Zn2    Zn    0.32605   0.50984   0.78202   0.01267  Uiso   1.00
Zn3    Zn    0.50984   0.38209   0.78202   0.01267  Uiso   1.00
Zn4    Zn    0.88209   0.00984   0.28202   0.01267  Uiso   1.00
Zn5    Zn    0.82605   0.88209   0.28202   0.01267  Uiso   1.00
Zn6    Zn    0.00984   0.82605   0.28202   0.01267  Uiso   1.00
Zn7    Zn    0.43680   0.43680   0.68960   0.01267  Uiso   1.00
Zn8    Zn    0.93680   0.93680   0.18960   0.01267  Uiso   1.00
H1     H     0.77190   0.46110   0.07500   0.01267  Uiso   1.00
H2     H     0.87100   0.54900   0.94660   0.01267  Uiso   1.00
H3     H     0.99750   0.54630   0.93190   0.01267  Uiso   1.00
H4     H     0.06020   0.32150   0.93070   0.01267  Uiso   1.00
H5     H     0.81920   0.37070   0.14460   0.01267  Uiso   1.00
H6     H     0.10770   0.54120   0.87730   0.01267  Uiso   1.00
H7     H     0.17190   0.31710   0.87430   0.01267  Uiso   1.00
H8     H     0.99210   0.32770   0.01410   0.01267  Uiso   1.00
H9     H     0.82240   0.26220   0.20310   0.01267  Uiso   1.00
H10    H     0.94630   0.23050   0.04830   0.01267  Uiso   1.00
H11    H     0.95500   0.12380   0.10650   0.01267  Uiso   1.00
H12    H     0.84130   0.66220   0.97420   0.01267  Uiso   1.00
H13    H     0.84040   0.61690   0.02760   0.01267  Uiso   1.00
H14    H     0.80000   0.71010   0.01530   0.01267  Uiso   1.00
H15    H     0.46110   0.69200   0.07500   0.01267  Uiso   1.00
H16    H     0.54900   0.63340   0.94660   0.01267  Uiso   1.00
H17    H     0.54630   0.52430   0.93190   0.01267  Uiso   1.00
H18    H     0.32150   0.68760   0.93070   0.01267  Uiso   1.00
H19    H     0.37070   0.66550   0.14460   0.01267  Uiso   1.00
H20    H     0.54120   0.47380   0.87730   0.01267  Uiso   1.00
H21    H     0.31710   0.63670   0.87430   0.01267  Uiso   1.00
H22    H     0.32770   0.66610   0.01410   0.01267  Uiso   1.00
H23    H     0.26220   0.71230   0.20310   0.01267  Uiso   1.00
H24    H     0.23050   0.77490   0.04830   0.01267  Uiso   1.00
H25    H     0.12380   0.81470   0.10650   0.01267  Uiso   1.00
H26    H     0.66220   0.52230   0.97420   0.01267  Uiso   1.00
H27    H     0.61690   0.51510   0.02760   0.01267  Uiso   1.00
H28    H     0.71010   0.47460   0.01530   0.01267  Uiso   1.00
H29    H     0.69200   0.77190   0.07500   0.01267  Uiso   1.00
H30    H     0.63340   0.87100   0.94660   0.01267  Uiso   1.00
H31    H     0.52430   0.99750   0.93190   0.01267  Uiso   1.00
H32    H     0.68760   0.06020   0.93070   0.01267  Uiso   1.00
H33    H     0.66550   0.81920   0.14460   0.01267  Uiso   1.00
H34    H     0.47380   0.10770   0.87730   0.01267  Uiso   1.00
H35    H     0.63670   0.17190   0.87430   0.01267  Uiso   1.00
H36    H     0.66610   0.99210   0.01410   0.01267  Uiso   1.00
H37    H     0.71230   0.82240   0.20310   0.01267  Uiso   1.00
H38    H     0.77490   0.94630   0.04830   0.01267  Uiso   1.00
H39    H     0.81470   0.95500   0.10650   0.01267  Uiso   1.00
H40    H     0.52230   0.84130   0.97420   0.01267  Uiso   1.00
H41    H     0.51510   0.84040   0.02760   0.01267  Uiso   1.00
H42    H     0.47460   0.80000   0.01530   0.01267  Uiso   1.00
H43    H     0.27190   0.19200   0.57500   0.01267  Uiso   1.00
H44    H     0.37100   0.13340   0.44660   0.01267  Uiso   1.00
H45    H     0.49750   0.02430   0.43190   0.01267  Uiso   1.00
H46    H     0.56020   0.18760   0.43070   0.01267  Uiso   1.00
H47    H     0.31920   0.16550   0.64460   0.01267  Uiso   1.00
H48    H     0.60770   0.97380   0.37730   0.01267  Uiso   1.00
H49    H     0.67190   0.13670   0.37430   0.01267  Uiso   1.00
H50    H     0.49210   0.16610   0.51410   0.01267  Uiso   1.00
H51    H     0.32240   0.21230   0.70310   0.01267  Uiso   1.00
H52    H     0.44630   0.27490   0.54830   0.01267  Uiso   1.00
H53    H     0.45500   0.31470   0.60650   0.01267  Uiso   1.00
H54    H     0.34130   0.02230   0.47420   0.01267  Uiso   1.00
H55    H     0.34040   0.01510   0.52760   0.01267  Uiso   1.00
H56    H     0.30000   0.97460   0.51530   0.01267  Uiso   1.00
H57    H     0.96110   0.27190   0.57500   0.01267  Uiso   1.00
H58    H     0.04900   0.37100   0.44660   0.01267  Uiso   1.00
H59    H     0.04630   0.49750   0.43190   0.01267  Uiso   1.00
H60    H     0.82150   0.56020   0.43070   0.01267  Uiso   1.00
H61    H     0.87070   0.31920   0.64460   0.01267  Uiso   1.00
H62    H     0.04120   0.60770   0.37730   0.01267  Uiso   1.00
H63    H     0.81710   0.67190   0.37430   0.01267  Uiso   1.00
H64    H     0.82770   0.49210   0.51410   0.01267  Uiso   1.00
H65    H     0.76220   0.32240   0.70310   0.01267  Uiso   1.00
H66    H     0.73050   0.44630   0.54830   0.01267  Uiso   1.00
H67    H     0.62380   0.45500   0.60650   0.01267  Uiso   1.00
H68    H     0.16220   0.34130   0.47420   0.01267  Uiso   1.00
H69    H     0.11690   0.34040   0.52760   0.01267  Uiso   1.00
H70    H     0.21010   0.30000   0.51530   0.01267  Uiso   1.00
H71    H     0.19200   0.96110   0.57500   0.01267  Uiso   1.00
H72    H     0.13340   0.04900   0.44660   0.01267  Uiso   1.00
H73    H     0.02430   0.04630   0.43190   0.01267  Uiso   1.00
H74    H     0.18760   0.82150   0.43070   0.01267  Uiso   1.00
H75    H     0.16550   0.87070   0.64460   0.01267  Uiso   1.00
H76    H     0.97380   0.04120   0.37730   0.01267  Uiso   1.00
H77    H     0.13670   0.81710   0.37430   0.01267  Uiso   1.00
H78    H     0.16610   0.82770   0.51410   0.01267  Uiso   1.00
H79    H     0.21230   0.76220   0.70310   0.01267  Uiso   1.00
H80    H     0.27490   0.73050   0.54830   0.01267  Uiso   1.00
H81    H     0.31470   0.62380   0.60650   0.01267  Uiso   1.00
H82    H     0.02230   0.16220   0.47420   0.01267  Uiso   1.00
H83    H     0.01510   0.11690   0.52760   0.01267  Uiso   1.00
H84    H     0.97460   0.21010   0.51530   0.01267  Uiso   1.00
C1     C     0.81418   0.45438   0.04896   0.01267  Uiso   1.00
C2     C     0.87399   0.50759   0.97303   0.01267  Uiso   1.00
C3     C     0.80773   0.51673   0.01011   0.01267  Uiso   1.00
C4     C     0.01535   0.43485   0.93745   0.01267  Uiso   1.00
C5     C     0.15360   0.42770   0.87040   0.01267  Uiso   1.00
C6     C     0.94383   0.43883   0.97441   0.01267  Uiso   1.00
C7     C     0.88043   0.38293   0.05061   0.01267  Uiso   1.00
C8     C     0.22879   0.42429   0.83713   0.01267  Uiso   1.00
C9     C     0.88154   0.31474   0.08958   0.01267  Uiso   1.00
C10    C     0.03251   0.49971   0.92047   0.01267  Uiso   1.00
C11    C     0.06977   0.36607   0.91969   0.01267  Uiso   1.00
C12    C     0.84548   0.32098   0.13656   0.01267  Uiso   1.00
C13    C     0.09835   0.49635   0.88825   0.01267  Uiso   1.00
C14    C     0.13711   0.36311   0.88627   0.01267  Uiso   1.00
C15    C     0.94606   0.37546   0.01332   0.01267  Uiso   1.00
C16    C     0.84743   0.25573   0.17181   0.01267  Uiso   1.00
C17    C     0.88609   0.18019   0.16143   0.01267  Uiso   1.00
C18    C     0.92183   0.23713   0.07971   0.01267  Uiso   1.00
C19    C     0.92536   0.17396   0.11412   0.01267  Uiso   1.00
C20    C     0.81084   0.66314   0.00618   0.01267  Uiso   1.00
C21    C     0.89053   0.11073   0.19851   0.01267  Uiso   1.00
C22    C     0.73495   0.66325   0.00855   0.01267  Uiso   1.00
C23    C     0.73284   0.59374   0.00858   0.01267  Uiso   1.00
C24    C     0.45438   0.68248   0.04896   0.01267  Uiso   1.00
C25    C     0.50759   0.64539   0.97303   0.01267  Uiso   1.00
C26    C     0.51673   0.66543   0.01011   0.01267  Uiso   1.00
C27    C     0.43485   0.61235   0.93745   0.01267  Uiso   1.00
C28    C     0.42770   0.54830   0.87040   0.01267  Uiso   1.00
C29    C     0.43883   0.64293   0.97441   0.01267  Uiso   1.00
C30    C     0.38293   0.68603   0.05061   0.01267  Uiso   1.00
C31    C     0.42429   0.50979   0.83713   0.01267  Uiso   1.00
C32    C     0.31474   0.71414   0.08958   0.01267  Uiso   1.00
C33    C     0.49971   0.54731   0.92047   0.01267  Uiso   1.00
C34    C     0.36607   0.64447   0.91969   0.01267  Uiso   1.00
C35    C     0.32098   0.69698   0.13656   0.01267  Uiso   1.00
C36    C     0.49635   0.51705   0.88825   0.01267  Uiso   1.00
C37    C     0.36311   0.61351   0.88627   0.01267  Uiso   1.00
C38    C     0.37546   0.66516   0.01332   0.01267  Uiso   1.00
C39    C     0.25573   0.72503   0.17181   0.01267  Uiso   1.00
C40    C     0.18019   0.77229   0.16143   0.01267  Uiso   1.00
C41    C     0.23713   0.76133   0.07971   0.01267  Uiso   1.00
C42    C     0.17396   0.78656   0.11412   0.01267  Uiso   1.00
C43    C     0.66314   0.51984   0.00618   0.01267  Uiso   1.00
C44    C     0.11073   0.80023   0.19851   0.01267  Uiso   1.00
C45    C     0.66325   0.59325   0.00855   0.01267  Uiso   1.00
C46    C     0.59374   0.66484   0.00858   0.01267  Uiso   1.00
C47    C     0.68248   0.81418   0.04896   0.01267  Uiso   1.00
C48    C     0.64539   0.87399   0.97303   0.01267  Uiso   1.00
C49    C     0.66543   0.80773   0.01011   0.01267  Uiso   1.00
C50    C     0.61235   0.01535   0.93745   0.01267  Uiso   1.00
C51    C     0.54830   0.15360   0.87040   0.01267  Uiso   1.00
C52    C     0.64293   0.94383   0.97441   0.01267  Uiso   1.00
C53    C     0.68603   0.88043   0.05061   0.01267  Uiso   1.00
C54    C     0.50979   0.22879   0.83713   0.01267  Uiso   1.00
C55    C     0.71414   0.88154   0.08958   0.01267  Uiso   1.00
C56    C     0.54731   0.03251   0.92047   0.01267  Uiso   1.00
C57    C     0.64447   0.06977   0.91969   0.01267  Uiso   1.00
C58    C     0.69698   0.84548   0.13656   0.01267  Uiso   1.00
C59    C     0.51705   0.09835   0.88825   0.01267  Uiso   1.00
C60    C     0.61351   0.13711   0.88627   0.01267  Uiso   1.00
C61    C     0.66516   0.94606   0.01332   0.01267  Uiso   1.00
C62    C     0.72503   0.84743   0.17181   0.01267  Uiso   1.00
C63    C     0.77229   0.88609   0.16143   0.01267  Uiso   1.00
C64    C     0.76133   0.92183   0.07971   0.01267  Uiso   1.00
C65    C     0.78656   0.92536   0.11412   0.01267  Uiso   1.00
C66    C     0.51984   0.81084   0.00618   0.01267  Uiso   1.00
C67    C     0.80023   0.89053   0.19851   0.01267  Uiso   1.00
C68    C     0.59325   0.73495   0.00855   0.01267  Uiso   1.00
C69    C     0.66484   0.73284   0.00858   0.01267  Uiso   1.00
C70    C     0.31418   0.18248   0.54896   0.01267  Uiso   1.00
C71    C     0.37399   0.14539   0.47303   0.01267  Uiso   1.00
C72    C     0.30773   0.16543   0.51011   0.01267  Uiso   1.00
C73    C     0.51535   0.11235   0.43745   0.01267  Uiso   1.00
C74    C     0.65360   0.04830   0.37040   0.01267  Uiso   1.00
C75    C     0.44383   0.14293   0.47441   0.01267  Uiso   1.00
C76    C     0.38043   0.18603   0.55061   0.01267  Uiso   1.00
C77    C     0.72879   0.00979   0.33713   0.01267  Uiso   1.00
C78    C     0.38154   0.21414   0.58958   0.01267  Uiso   1.00
C79    C     0.53251   0.04731   0.42047   0.01267  Uiso   1.00
C80    C     0.56977   0.14447   0.41969   0.01267  Uiso   1.00
C81    C     0.34548   0.19698   0.63656   0.01267  Uiso   1.00
C82    C     0.59835   0.01705   0.38825   0.01267  Uiso   1.00
C83    C     0.63711   0.11351   0.38627   0.01267  Uiso   1.00
C84    C     0.44606   0.16516   0.51332   0.01267  Uiso   1.00
C85    C     0.34743   0.22503   0.67181   0.01267  Uiso   1.00
C86    C     0.38609   0.27229   0.66143   0.01267  Uiso   1.00
C87    C     0.42183   0.26133   0.57971   0.01267  Uiso   1.00
C88    C     0.42536   0.28656   0.61412   0.01267  Uiso   1.00
C89    C     0.31084   0.01984   0.50618   0.01267  Uiso   1.00
C90    C     0.39053   0.30023   0.69851   0.01267  Uiso   1.00
C91    C     0.23495   0.09325   0.50855   0.01267  Uiso   1.00
C92    C     0.23284   0.16484   0.50858   0.01267  Uiso   1.00
C93    C     0.95438   0.31418   0.54896   0.01267  Uiso   1.00
C94    C     0.00759   0.37399   0.47303   0.01267  Uiso   1.00
C95    C     0.01673   0.30773   0.51011   0.01267  Uiso   1.00
C96    C     0.93485   0.51535   0.43745   0.01267  Uiso   1.00
C97    C     0.92770   0.65360   0.37040   0.01267  Uiso   1.00
C98    C     0.93883   0.44383   0.47441   0.01267  Uiso   1.00
C99    C     0.88293   0.38043   0.55061   0.01267  Uiso   1.00
C100   C     0.92429   0.72879   0.33713   0.01267  Uiso   1.00
C101   C     0.81474   0.38154   0.58958   0.01267  Uiso   1.00
C102   C     0.99971   0.53251   0.42047   0.01267  Uiso   1.00
C103   C     0.86607   0.56977   0.41969   0.01267  Uiso   1.00
C104   C     0.82098   0.34548   0.63656   0.01267  Uiso   1.00
C105   C     0.99635   0.59835   0.38825   0.01267  Uiso   1.00
C106   C     0.86311   0.63711   0.38627   0.01267  Uiso   1.00
C107   C     0.87546   0.44606   0.51332   0.01267  Uiso   1.00
C108   C     0.75573   0.34743   0.67181   0.01267  Uiso   1.00
C109   C     0.68019   0.38609   0.66143   0.01267  Uiso   1.00
C110   C     0.73713   0.42183   0.57971   0.01267  Uiso   1.00
C111   C     0.67396   0.42536   0.61412   0.01267  Uiso   1.00
C112   C     0.16314   0.31084   0.50618   0.01267  Uiso   1.00
C113   C     0.61073   0.39053   0.69851   0.01267  Uiso   1.00
C114   C     0.16325   0.23495   0.50855   0.01267  Uiso   1.00
C115   C     0.09374   0.23284   0.50858   0.01267  Uiso   1.00
C116   C     0.18248   0.95438   0.54896   0.01267  Uiso   1.00
C117   C     0.14539   0.00759   0.47303   0.01267  Uiso   1.00
C118   C     0.16543   0.01673   0.51011   0.01267  Uiso   1.00
C119   C     0.11235   0.93485   0.43745   0.01267  Uiso   1.00
C120   C     0.04830   0.92770   0.37040   0.01267  Uiso   1.00
C121   C     0.14293   0.93883   0.47441   0.01267  Uiso   1.00
C122   C     0.18603   0.88293   0.55061   0.01267  Uiso   1.00
C123   C     0.00979   0.92429   0.33713   0.01267  Uiso   1.00
C124   C     0.21414   0.81474   0.58958   0.01267  Uiso   1.00
C125   C     0.04731   0.99971   0.42047   0.01267  Uiso   1.00
C126   C     0.14447   0.86607   0.41969   0.01267  Uiso   1.00
C127   C     0.19698   0.82098   0.63656   0.01267  Uiso   1.00
C128   C     0.01705   0.99635   0.38825   0.01267  Uiso   1.00
C129   C     0.11351   0.86311   0.38627   0.01267  Uiso   1.00
C130   C     0.16516   0.87546   0.51332   0.01267  Uiso   1.00
C131   C     0.22503   0.75573   0.67181   0.01267  Uiso   1.00
C132   C     0.27229   0.68019   0.66143   0.01267  Uiso   1.00
C133   C     0.26133   0.73713   0.57971   0.01267  Uiso   1.00
C134   C     0.28656   0.67396   0.61412   0.01267  Uiso   1.00
C135   C     0.01984   0.16314   0.50618   0.01267  Uiso   1.00
C136   C     0.30023   0.61073   0.69851   0.01267  Uiso   1.00
C137   C     0.09325   0.16325   0.50855   0.01267  Uiso   1.00
C138   C     0.16484   0.09374   0.50858   0.01267  Uiso   1.00
O1     O     0.27901   0.35821   0.82627   0.01267  Uiso   1.00
O2     O     0.86760   0.11180   0.24030   0.01267  Uiso   1.00
O3     O     0.92710   0.04330   0.18720   0.01267  Uiso   1.00
O4     O     0.23735   0.48665   0.82255   0.01267  Uiso   1.00
O5     O     0.35821   0.53651   0.82627   0.01267  Uiso   1.00
O6     O     0.11180   0.78030   0.24030   0.01267  Uiso   1.00
O7     O     0.04330   0.84240   0.18720   0.01267  Uiso   1.00
O8     O     0.48665   0.45345   0.82255   0.01267  Uiso   1.00
O9     O     0.53651   0.27901   0.82627   0.01267  Uiso   1.00
O10    O     0.78030   0.86760   0.24030   0.01267  Uiso   1.00
O11    O     0.84240   0.92710   0.18720   0.01267  Uiso   1.00
O12    O     0.45345   0.23735   0.82255   0.01267  Uiso   1.00
O13    O     0.77901   0.03651   0.32627   0.01267  Uiso   1.00
O14    O     0.36760   0.28030   0.74030   0.01267  Uiso   1.00
O15    O     0.42710   0.34240   0.68720   0.01267  Uiso   1.00
O16    O     0.73735   0.95345   0.32255   0.01267  Uiso   1.00
O17    O     0.85821   0.77901   0.32627   0.01267  Uiso   1.00
O18    O     0.61180   0.36760   0.74030   0.01267  Uiso   1.00
O19    O     0.54330   0.42710   0.68720   0.01267  Uiso   1.00
O20    O     0.98665   0.73735   0.32255   0.01267  Uiso   1.00
O21    O     0.03651   0.85821   0.32627   0.01267  Uiso   1.00
O22    O     0.28030   0.61180   0.74030   0.01267  Uiso   1.00
O23    O     0.34240   0.54330   0.68720   0.01267  Uiso   1.00
O24    O     0.95345   0.98665   0.32255   0.01267  Uiso   1.00
O25    O     0.41270   0.41270   0.76190   0.01267  Uiso   1.00
O26    O     0.91270   0.91270   0.26190   0.01267  Uiso   1.00
Zn9    Zn    0.11791   0.99016   0.71798   0.01267  Uiso   1.00
Zn10   Zn    0.17395   0.11791   0.71798   0.01267  Uiso   1.00
Zn11   Zn    0.99016   0.17395   0.71798   0.01267  Uiso   1.00
Zn12   Zn    0.61791   0.67395   0.21798   0.01267  Uiso   1.00
Zn13   Zn    0.67395   0.49016   0.21798   0.01267  Uiso   1.00
Zn14   Zn    0.49016   0.61791   0.21798   0.01267  Uiso   1.00
Zn15   Zn    0.06320   0.06320   0.81040   0.01267  Uiso   1.00
Zn16   Zn    0.56320   0.56320   0.31040   0.01267  Uiso   1.00
H85    H     0.72810   0.80800   0.42500   0.01267  Uiso   1.00
H86    H     0.62900   0.86660   0.55340   0.01267  Uiso   1.00
H87    H     0.50250   0.97570   0.56810   0.01267  Uiso   1.00
H88    H     0.43980   0.81240   0.56930   0.01267  Uiso   1.00
H89    H     0.68080   0.83450   0.35540   0.01267  Uiso   1.00
H90    H     0.39230   0.02620   0.62270   0.01267  Uiso   1.00
H91    H     0.32810   0.86330   0.62570   0.01267  Uiso   1.00
H92    H     0.50790   0.83390   0.48590   0.01267  Uiso   1.00
H93    H     0.67760   0.78770   0.29690   0.01267  Uiso   1.00
H94    H     0.55370   0.72510   0.45170   0.01267  Uiso   1.00
H95    H     0.54500   0.68530   0.39350   0.01267  Uiso   1.00
H96    H     0.65870   0.97770   0.52580   0.01267  Uiso   1.00
H97    H     0.65960   0.98490   0.47240   0.01267  Uiso   1.00
H98    H     0.70000   0.02540   0.48470   0.01267  Uiso   1.00
H99    H     0.03890   0.72810   0.42500   0.01267  Uiso   1.00
H100   H     0.95100   0.62900   0.55340   0.01267  Uiso   1.00
H101   H     0.95370   0.50250   0.56810   0.01267  Uiso   1.00
H102   H     0.17850   0.43980   0.56930   0.01267  Uiso   1.00
H103   H     0.12930   0.68080   0.35540   0.01267  Uiso   1.00
H104   H     0.95880   0.39230   0.62270   0.01267  Uiso   1.00
H105   H     0.18290   0.32810   0.62570   0.01267  Uiso   1.00
H106   H     0.17230   0.50790   0.48590   0.01267  Uiso   1.00
H107   H     0.23780   0.67760   0.29690   0.01267  Uiso   1.00
H108   H     0.26950   0.55370   0.45170   0.01267  Uiso   1.00
H109   H     0.37620   0.54500   0.39350   0.01267  Uiso   1.00
H110   H     0.83780   0.65870   0.52580   0.01267  Uiso   1.00
H111   H     0.88310   0.65960   0.47240   0.01267  Uiso   1.00
H112   H     0.78990   0.70000   0.48470   0.01267  Uiso   1.00
H113   H     0.80800   0.03890   0.42500   0.01267  Uiso   1.00
H114   H     0.86660   0.95100   0.55340   0.01267  Uiso   1.00
H115   H     0.97570   0.95370   0.56810   0.01267  Uiso   1.00
H116   H     0.81240   0.17850   0.56930   0.01267  Uiso   1.00
H117   H     0.83450   0.12930   0.35540   0.01267  Uiso   1.00
H118   H     0.02620   0.95880   0.62270   0.01267  Uiso   1.00
H119   H     0.86330   0.18290   0.62570   0.01267  Uiso   1.00
H120   H     0.83390   0.17230   0.48590   0.01267  Uiso   1.00
H121   H     0.78770   0.23780   0.29690   0.01267  Uiso   1.00
H122   H     0.72510   0.26950   0.45170   0.01267  Uiso   1.00
H123   H     0.68530   0.37620   0.39350   0.01267  Uiso   1.00
H124   H     0.97770   0.83780   0.52580   0.01267  Uiso   1.00
H125   H     0.98490   0.88310   0.47240   0.01267  Uiso   1.00
H126   H     0.02540   0.78990   0.48470   0.01267  Uiso   1.00
H127   H     0.22810   0.53890   0.92500   0.01267  Uiso   1.00
H128   H     0.12900   0.45100   0.05340   0.01267  Uiso   1.00
H129   H     0.00250   0.45370   0.06810   0.01267  Uiso   1.00
H130   H     0.93980   0.67850   0.06930   0.01267  Uiso   1.00
H131   H     0.18080   0.62930   0.85540   0.01267  Uiso   1.00
H132   H     0.89230   0.45880   0.12270   0.01267  Uiso   1.00
H133   H     0.82810   0.68290   0.12570   0.01267  Uiso   1.00
H134   H     0.00790   0.67230   0.98590   0.01267  Uiso   1.00
H135   H     0.17760   0.73780   0.79690   0.01267  Uiso   1.00
H136   H     0.05370   0.76950   0.95170   0.01267  Uiso   1.00
H137   H     0.04500   0.87620   0.89350   0.01267  Uiso   1.00
H138   H     0.15870   0.33780   0.02580   0.01267  Uiso   1.00
H139   H     0.15960   0.38310   0.97240   0.01267  Uiso   1.00
H140   H     0.20000   0.28990   0.98470   0.01267  Uiso   1.00
H141   H     0.53890   0.30800   0.92500   0.01267  Uiso   1.00
H142   H     0.45100   0.36660   0.05340   0.01267  Uiso   1.00
H143   H     0.45370   0.47570   0.06810   0.01267  Uiso   1.00
H144   H     0.67850   0.31240   0.06930   0.01267  Uiso   1.00
H145   H     0.62930   0.33450   0.85540   0.01267  Uiso   1.00
H146   H     0.45880   0.52620   0.12270   0.01267  Uiso   1.00
H147   H     0.68290   0.36330   0.12570   0.01267  Uiso   1.00
H148   H     0.67230   0.33390   0.98590   0.01267  Uiso   1.00
H149   H     0.73780   0.28770   0.79690   0.01267  Uiso   1.00
H150   H     0.76950   0.22510   0.95170   0.01267  Uiso   1.00
H151   H     0.87620   0.18530   0.89350   0.01267  Uiso   1.00
H152   H     0.33780   0.47770   0.02580   0.01267  Uiso   1.00
H153   H     0.38310   0.48490   0.97240   0.01267  Uiso   1.00
H154   H     0.28990   0.52540   0.98470   0.01267  Uiso   1.00
H155   H     0.30800   0.22810   0.92500   0.01267  Uiso   1.00
H156   H     0.36660   0.12900   0.05340   0.01267  Uiso   1.00
H157   H     0.47570   0.00250   0.06810   0.01267  Uiso   1.00
H158   H     0.31240   0.93980   0.06930   0.01267  Uiso   1.00
H159   H     0.33450   0.18080   0.85540   0.01267  Uiso   1.00
H160   H     0.52620   0.89230   0.12270   0.01267  Uiso   1.00
H161   H     0.36330   0.82810   0.12570   0.01267  Uiso   1.00
H162   H     0.33390   0.00790   0.98590   0.01267  Uiso   1.00
H163   H     0.28770   0.17760   0.79690   0.01267  Uiso   1.00
H164   H     0.22510   0.05370   0.95170   0.01267  Uiso   1.00
H165   H     0.18530   0.04500   0.89350   0.01267  Uiso   1.00
H166   H     0.47770   0.15870   0.02580   0.01267  Uiso   1.00
H167   H     0.48490   0.15960   0.97240   0.01267  Uiso   1.00
H168   H     0.52540   0.20000   0.98470   0.01267  Uiso   1.00
C139   C     0.68582   0.81752   0.45104   0.01267  Uiso   1.00
C140   C     0.62601   0.85461   0.52697   0.01267  Uiso   1.00
C141   C     0.69227   0.83457   0.48989   0.01267  Uiso   1.00
C142   C     0.48465   0.88765   0.56255   0.01267  Uiso   1.00
C143   C     0.34640   0.95170   0.62960   0.01267  Uiso   1.00
C144   C     0.55617   0.85707   0.52559   0.01267  Uiso   1.00
C145   C     0.61957   0.81397   0.44939   0.01267  Uiso   1.00
C146   C     0.27121   0.99021   0.66287   0.01267  Uiso   1.00
C147   C     0.61846   0.78586   0.41042   0.01267  Uiso   1.00
C148   C     0.46749   0.95269   0.57953   0.01267  Uiso   1.00
C149   C     0.43023   0.85553   0.58031   0.01267  Uiso   1.00
C150   C     0.65452   0.80302   0.36344   0.01267  Uiso   1.00
C151   C     0.40165   0.98295   0.61175   0.01267  Uiso   1.00
C152   C     0.36289   0.88649   0.61373   0.01267  Uiso   1.00
C153   C     0.55394   0.83484   0.48668   0.01267  Uiso   1.00
C154   C     0.65257   0.77497   0.32819   0.01267  Uiso   1.00
C155   C     0.61391   0.72771   0.33857   0.01267  Uiso   1.00
C156   C     0.57817   0.73867   0.42029   0.01267  Uiso   1.00
C157   C     0.57464   0.71344   0.38588   0.01267  Uiso   1.00
C158   C     0.68916   0.98016   0.49382   0.01267  Uiso   1.00
C159   C     0.60947   0.69977   0.30149   0.01267  Uiso   1.00
C160   C     0.76505   0.90675   0.49145   0.01267  Uiso   1.00
C161   C     0.76716   0.83516   0.49142   0.01267  Uiso   1.00
C162   C     0.04562   0.68582   0.45104   0.01267  Uiso   1.00
C163   C     0.99241   0.62601   0.52697   0.01267  Uiso   1.00
C164   C     0.98327   0.69227   0.48989   0.01267  Uiso   1.00
C165   C     0.06515   0.48465   0.56255   0.01267  Uiso   1.00
C166   C     0.07230   0.34640   0.62960   0.01267  Uiso   1.00
C167   C     0.06117   0.55617   0.52559   0.01267  Uiso   1.00
C168   C     0.11707   0.61957   0.44939   0.01267  Uiso   1.00
C169   C     0.07571   0.27121   0.66287   0.01267  Uiso   1.00
C170   C     0.18526   0.61846   0.41042   0.01267  Uiso   1.00
C171   C     0.00029   0.46749   0.57953   0.01267  Uiso   1.00
C172   C     0.13393   0.43023   0.58031   0.01267  Uiso   1.00
C173   C     0.17902   0.65452   0.36344   0.01267  Uiso   1.00
C174   C     0.00365   0.40165   0.61175   0.01267  Uiso   1.00
C175   C     0.13689   0.36289   0.61373   0.01267  Uiso   1.00
C176   C     0.12454   0.55394   0.48668   0.01267  Uiso   1.00
C177   C     0.24427   0.65257   0.32819   0.01267  Uiso   1.00
C178   C     0.31981   0.61391   0.33857   0.01267  Uiso   1.00
C179   C     0.26287   0.57817   0.42029   0.01267  Uiso   1.00
C180   C     0.32604   0.57464   0.38588   0.01267  Uiso   1.00
C181   C     0.83686   0.68916   0.49382   0.01267  Uiso   1.00
C182   C     0.38927   0.60947   0.30149   0.01267  Uiso   1.00
C183   C     0.83675   0.76505   0.49145   0.01267  Uiso   1.00
C184   C     0.90626   0.76716   0.49142   0.01267  Uiso   1.00
C185   C     0.81752   0.04562   0.45104   0.01267  Uiso   1.00
C186   C     0.85461   0.99241   0.52697   0.01267  Uiso   1.00
C187   C     0.83457   0.98327   0.48989   0.01267  Uiso   1.00
C188   C     0.88765   0.06515   0.56255   0.01267  Uiso   1.00
C189   C     0.95170   0.07230   0.62960   0.01267  Uiso   1.00
C190   C     0.85707   0.06117   0.52559   0.01267  Uiso   1.00
C191   C     0.81397   0.11707   0.44939   0.01267  Uiso   1.00
C192   C     0.99021   0.07571   0.66287   0.01267  Uiso   1.00
C193   C     0.78586   0.18526   0.41042   0.01267  Uiso   1.00
C194   C     0.95269   0.00029   0.57953   0.01267  Uiso   1.00
C195   C     0.85553   0.13393   0.58031   0.01267  Uiso   1.00
C196   C     0.80302   0.17902   0.36344   0.01267  Uiso   1.00
C197   C     0.98295   0.00365   0.61175   0.01267  Uiso   1.00
C198   C     0.88649   0.13689   0.61373   0.01267  Uiso   1.00
C199   C     0.83484   0.12454   0.48668   0.01267  Uiso   1.00
C200   C     0.77497   0.24427   0.32819   0.01267  Uiso   1.00
C201   C     0.72771   0.31981   0.33857   0.01267  Uiso   1.00
C202   C     0.73867   0.26287   0.42029   0.01267  Uiso   1.00
C203   C     0.71344   0.32604   0.38588   0.01267  Uiso   1.00
C204   C     0.98016   0.83686   0.49382   0.01267  Uiso   1.00
C205   C     0.69977   0.38927   0.30149   0.01267  Uiso   1.00
C206   C     0.90675   0.83675   0.49145   0.01267  Uiso   1.00
C207   C     0.83516   0.90626   0.49142   0.01267  Uiso   1.00
C208   C     0.18582   0.54562   0.95104   0.01267  Uiso   1.00
C209   C     0.12601   0.49241   0.02697   0.01267  Uiso   1.00
C210   C     0.19227   0.48327   0.98989   0.01267  Uiso   1.00
C211   C     0.98465   0.56515   0.06255   0.01267  Uiso   1.00
C212   C     0.84640   0.57230   0.12960   0.01267  Uiso   1.00
C213   C     0.05617   0.56117   0.02559   0.01267  Uiso   1.00
C214   C     0.11957   0.61707   0.94939   0.01267  Uiso   1.00
C215   C     0.77121   0.57571   0.16287   0.01267  Uiso   1.00
C216   C     0.11846   0.68526   0.91042   0.01267  Uiso   1.00
C217   C     0.96749   0.50029   0.07953   0.01267  Uiso   1.00
C218   C     0.93023   0.63393   0.08031   0.01267  Uiso   1.00
C219   C     0.15452   0.67902   0.86344   0.01267  Uiso   1.00
C220   C     0.90165   0.50365   0.11175   0.01267  Uiso   1.00
C221   C     0.86289   0.63689   0.11373   0.01267  Uiso   1.00
C222   C     0.05394   0.62454   0.98668   0.01267  Uiso   1.00
C223   C     0.15257   0.74427   0.82819   0.01267  Uiso   1.00
C224   C     0.11391   0.81981   0.83857   0.01267  Uiso   1.00
C225   C     0.07817   0.76287   0.92029   0.01267  Uiso   1.00
C226   C     0.07464   0.82604   0.88588   0.01267  Uiso   1.00
C227   C     0.18916   0.33686   0.99382   0.01267  Uiso   1.00
C228   C     0.10947   0.88927   0.80149   0.01267  Uiso   1.00
C229   C     0.26505   0.33675   0.99145   0.01267  Uiso   1.00
C230   C     0.26716   0.40626   0.99142   0.01267  Uiso   1.00
C231   C     0.54562   0.31752   0.95104   0.01267  Uiso   1.00
C232   C     0.49241   0.35461   0.02697   0.01267  Uiso   1.00
C233   C     0.48327   0.33457   0.98989   0.01267  Uiso   1.00
C234   C     0.56515   0.38765   0.06255   0.01267  Uiso   1.00
C235   C     0.57230   0.45170   0.12960   0.01267  Uiso   1.00
C236   C     0.56117   0.35707   0.02559   0.01267  Uiso   1.00
C237   C     0.61707   0.31397   0.94939   0.01267  Uiso   1.00
C238   C     0.57571   0.49021   0.16287   0.01267  Uiso   1.00
C239   C     0.68526   0.28586   0.91042   0.01267  Uiso   1.00
C240   C     0.50029   0.45269   0.07953   0.01267  Uiso   1.00
C241   C     0.63393   0.35553   0.08031   0.01267  Uiso   1.00
C242   C     0.67902   0.30302   0.86344   0.01267  Uiso   1.00
C243   C     0.50365   0.48295   0.11175   0.01267  Uiso   1.00
C244   C     0.63689   0.38649   0.11373   0.01267  Uiso   1.00
C245   C     0.62454   0.33484   0.98668   0.01267  Uiso   1.00
C246   C     0.74427   0.27497   0.82819   0.01267  Uiso   1.00
C247   C     0.81981   0.22771   0.83857   0.01267  Uiso   1.00
C248   C     0.76287   0.23867   0.92029   0.01267  Uiso   1.00
C249   C     0.82604   0.21344   0.88588   0.01267  Uiso   1.00
C250   C     0.33686   0.48016   0.99382   0.01267  Uiso   1.00
C251   C     0.88927   0.19977   0.80149   0.01267  Uiso   1.00
C252   C     0.33675   0.40675   0.99145   0.01267  Uiso   1.00
C253   C     0.40626   0.33516   0.99142   0.01267  Uiso   1.00
C254   C     0.31752   0.18582   0.95104   0.01267  Uiso   1.00
C255   C     0.35461   0.12601   0.02697   0.01267  Uiso   1.00
C256   C     0.33457   0.19227   0.98989   0.01267  Uiso   1.00
C257   C     0.38765   0.98465   0.06255   0.01267  Uiso   1.00
C258   C     0.45170   0.84640   0.12960   0.01267  Uiso   1.00
C259   C     0.35707   0.05617   0.02559   0.01267  Uiso   1.00
C260   C     0.31397   0.11957   0.94939   0.01267  Uiso   1.00
C261   C     0.49021   0.77121   0.16287   0.01267  Uiso   1.00
C262   C     0.28586   0.11846   0.91042   0.01267  Uiso   1.00
C263   C     0.45269   0.96749   0.07953   0.01267  Uiso   1.00
C264   C     0.35553   0.93023   0.08031   0.01267  Uiso   1.00
C265   C     0.30302   0.15452   0.86344   0.01267  Uiso   1.00
C266   C     0.48295   0.90165   0.11175   0.01267  Uiso   1.00
C267   C     0.38649   0.86289   0.11373   0.01267  Uiso   1.00
C268   C     0.33484   0.05394   0.98668   0.01267  Uiso   1.00
C269   C     0.27497   0.15257   0.82819   0.01267  Uiso   1.00
C270   C     0.22771   0.11391   0.83857   0.01267  Uiso   1.00
C271   C     0.23867   0.07817   0.92029   0.01267  Uiso   1.00
C272   C     0.21344   0.07464   0.88588   0.01267  Uiso   1.00
C273   C     0.48016   0.18916   0.99382   0.01267  Uiso   1.00
C274   C     0.19977   0.10947   0.80149   0.01267  Uiso   1.00
C275   C     0.40675   0.26505   0.99145   0.01267  Uiso   1.00
C276   C     0.33516   0.26716   0.99142   0.01267  Uiso   1.00
O27    O     0.22099   0.96349   0.67373   0.01267  Uiso   1.00
O28    O     0.63240   0.71970   0.25970   0.01267  Uiso   1.00
O29    O     0.57290   0.65760   0.31280   0.01267  Uiso   1.00
O30    O     0.26265   0.04655   0.67745   0.01267  Uiso   1.00
O31    O     0.14179   0.22099   0.67373   0.01267  Uiso   1.00
O32    O     0.38820   0.63240   0.25970   0.01267  Uiso   1.00
O33    O     0.45670   0.57290   0.31280   0.01267  Uiso   1.00
O34    O     0.01335   0.26265   0.67745   0.01267  Uiso   1.00
O35    O     0.96349   0.14179   0.67373   0.01267  Uiso   1.00
O36    O     0.71970   0.38820   0.25970   0.01267  Uiso   1.00
O37    O     0.65760   0.45670   0.31280   0.01267  Uiso   1.00
O38    O     0.04655   0.01335   0.67745   0.01267  Uiso   1.00
O39    O     0.72099   0.64179   0.17373   0.01267  Uiso   1.00
O40    O     0.13240   0.88820   0.75970   0.01267  Uiso   1.00
O41    O     0.07290   0.95670   0.81280   0.01267  Uiso   1.00
O42    O     0.76265   0.51335   0.17745   0.01267  Uiso   1.00
O43    O     0.64179   0.46349   0.17373   0.01267  Uiso   1.00
O44    O     0.88820   0.21970   0.75970   0.01267  Uiso   1.00
O45    O     0.95670   0.15760   0.81280   0.01267  Uiso   1.00
O46    O     0.51335   0.54655   0.17745   0.01267  Uiso   1.00
O47    O     0.46349   0.72099   0.17373   0.01267  Uiso   1.00
O48    O     0.21970   0.13240   0.75970   0.01267  Uiso   1.00
O49    O     0.15760   0.07290   0.81280   0.01267  Uiso   1.00
O50    O     0.54655   0.76265   0.17745   0.01267  Uiso   1.00
O51    O     0.08730   0.08730   0.73810   0.01267  Uiso   1.00
O52    O     0.58730   0.58730   0.23810   0.01267  Uiso   1.00
