data_UFUMUD01_clean
_audit_creation_date              2014-07-02
_audit_creation_method            'Materials Studio'
_symmetry_space_group_name_H-M    'P1'
_symmetry_Int_Tables_number       1
_symmetry_cell_setting            triclinic
loop_
_symmetry_equiv_pos_as_xyz
  x,y,z
_cell_length_a                    4.9440
_cell_length_b                    11.1100
_cell_length_c                    12.6514
_cell_angle_alpha                 91.5950
_cell_angle_beta                  101.2680
_cell_angle_gamma                 81.8102
loop_
_atom_site_label
_atom_site_type_symbol
_atom_site_fract_x
_atom_site_fract_y
_atom_site_fract_z
_atom_site_U_iso_or_equiv
_atom_site_adp_type
_atom_site_occupancy
Cu1    Cu    0.82647   0.30466   0.22758   0.01267  Uiso   1.00
Cu2    Cu    0.59889   0.80466   0.77242   0.01267  Uiso   1.00
H1     H     0.58970   0.50480   0.86900   0.01267  Uiso   1.00
H2     H     0.82550   0.37100   0.00020   0.01267  Uiso   1.00
H3     H     0.33150   0.48940   0.19440   0.01267  Uiso   1.00
H4     H     0.07160   0.62510   0.06940   0.01267  Uiso   1.00
H5     H     0.02370   0.96160   0.49020   0.01267  Uiso   1.00
H6     H     0.81000   0.06600   0.33240   0.01267  Uiso   1.00
H7     H     0.32400   0.30620   0.39360   0.01267  Uiso   1.00
H8     H     0.55960   0.20670   0.54900   0.01267  Uiso   1.00
H9     H     0.72070   0.00480   0.13100   0.01267  Uiso   1.00
H10    H     0.82530   0.87100   0.99980   0.01267  Uiso   1.00
H11    H     0.13710   0.98940   0.80560   0.01267  Uiso   1.00
H12    H     0.00220   0.12510   0.93060   0.01267  Uiso   1.00
H13    H     0.53350   0.46160   0.50980   0.01267  Uiso   1.00
H14    H     0.47760   0.56600   0.66760   0.01267  Uiso   1.00
H15    H     0.93040   0.80620   0.60640   0.01267  Uiso   1.00
H16    H     0.01060   0.70670   0.45100   0.01267  Uiso   1.00
C1     C     0.13700   0.67110   0.86720   0.01267  Uiso   1.00
C2     C     0.29740   0.58270   0.95220   0.01267  Uiso   1.00
C3     C     0.53110   0.50350   0.93460   0.01267  Uiso   1.00
C4     C     0.67330   0.42400   0.01420   0.01267  Uiso   1.00
C5     C     0.38230   0.49330   0.12780   0.01267  Uiso   1.00
C6     C     0.22530   0.57500   0.05300   0.01267  Uiso   1.00
C7     C     0.46810   0.00090   0.63440   0.01267  Uiso   1.00
C8     C     0.31170   0.07200   0.53720   0.01267  Uiso   1.00
C9     C     0.08900   0.03140   0.47200   0.01267  Uiso   1.00
C10    C     0.95780   0.09570   0.37760   0.01267  Uiso   1.00
C11    C     0.26220   0.23650   0.41360   0.01267  Uiso   1.00
C12    C     0.40590   0.17750   0.50720   0.01267  Uiso   1.00
C13    C     0.26980   0.17110   0.13280   0.01267  Uiso   1.00
C14    C     0.34520   0.08270   0.04780   0.01267  Uiso   1.00
C15    C     0.59650   0.00350   0.06540   0.01267  Uiso   1.00
C16    C     0.65910   0.92400   0.98580   0.01267  Uiso   1.00
C17    C     0.25450   0.99330   0.87220   0.01267  Uiso   1.00
C18    C     0.17230   0.07500   0.94700   0.01267  Uiso   1.00
C19    C     0.83370   0.50090   0.36560   0.01267  Uiso   1.00
C20    C     0.77450   0.57200   0.46280   0.01267  Uiso   1.00
C21    C     0.61700   0.53140   0.52800   0.01267  Uiso   1.00
C22    C     0.58020   0.59570   0.62240   0.01267  Uiso   1.00
C23    C     0.84860   0.73650   0.58640   0.01267  Uiso   1.00
C24    C     0.89870   0.67750   0.49280   0.01267  Uiso   1.00
N1     N     0.60550   0.41890   0.10880   0.01267  Uiso   1.00
N2     N     0.04030   0.19930   0.35040   0.01267  Uiso   1.00
N3     N     0.49670   0.91890   0.89120   0.01267  Uiso   1.00
N4     N     0.68990   0.69930   0.64960   0.01267  Uiso   1.00
O1     O     0.88550   0.70860   0.87760   0.01267  Uiso   1.00
O2     O     0.24520   0.69890   0.79320   0.01267  Uiso   1.00
O3     O     0.35930   0.91100   0.65880   0.01267  Uiso   1.00
O4     O     0.68270   0.03390   0.68580   0.01267  Uiso   1.00
O5     O     0.00790   0.20860   0.12240   0.01267  Uiso   1.00
O6     O     0.45200   0.19890   0.20680   0.01267  Uiso   1.00
O7     O     0.70050   0.41100   0.34120   0.01267  Uiso   1.00
O8     O     0.99690   0.53390   0.31420   0.01267  Uiso   1.00
