data_UFUMUD_clean
_audit_creation_date              2014-07-02
_audit_creation_method            'Materials Studio'
_symmetry_space_group_name_H-M    'P1'
_symmetry_Int_Tables_number       1
_symmetry_cell_setting            triclinic
loop_
_symmetry_equiv_pos_as_xyz
  x,y,z
_cell_length_a                    4.9577
_cell_length_b                    11.2322
_cell_length_c                    12.5626
_cell_angle_alpha                 91.6371
_cell_angle_beta                  101.3800
_cell_angle_gamma                 81.6752
loop_
_atom_site_label
_atom_site_type_symbol
_atom_site_fract_x
_atom_site_fract_y
_atom_site_fract_z
_atom_site_U_iso_or_equiv
_atom_site_adp_type
_atom_site_occupancy
Cu1    Cu    0.05660   0.78317   0.22776   0.01267  Uiso   1.00
Cu2    Cu    0.82884   0.28317   0.77224   0.01267  Uiso   1.00
H1     H     0.85740   0.51570   0.66600   0.01267  Uiso   1.00
H2     H     0.63800   0.62620   0.51340   0.01267  Uiso   1.00
H3     H     0.09160   0.38950   0.44940   0.01267  Uiso   1.00
H4     H     0.32360   0.28470   0.60360   0.01267  Uiso   1.00
H5     H     0.32880   0.10020   0.80260   0.01267  Uiso   1.00
H6     H     0.59340   0.96630   0.92920   0.01267  Uiso   1.00
H7     H     0.07280   0.07570   0.13200   0.01267  Uiso   1.00
H8     H     0.82970   0.21200   0.00160   0.01267  Uiso   1.00
H9     H     0.19140   0.01570   0.33400   0.01267  Uiso   1.00
H10    H     0.12460   0.12620   0.48660   0.01267  Uiso   1.00
H11    H     0.64220   0.88950   0.55060   0.01267  Uiso   1.00
H12    H     0.72000   0.78470   0.39640   0.01267  Uiso   1.00
H13    H     0.52620   0.60020   0.19740   0.01267  Uiso   1.00
H14    H     0.66420   0.46630   0.07080   0.01267  Uiso   1.00
H15    H     0.94080   0.57570   0.86800   0.01267  Uiso   1.00
H16    H     0.82810   0.71200   0.99840   0.01267  Uiso   1.00
C1     C     0.70083   0.48990   0.62146   0.01267  Uiso   1.00
C2     C     0.57063   0.55650   0.53026   0.01267  Uiso   1.00
C3     C     0.34019   0.51960   0.46398   0.01267  Uiso   1.00
C4     C     0.24817   0.41670   0.49254   0.01267  Uiso   1.00
C5     C     0.38793   0.35440   0.58486   0.01267  Uiso   1.00
C6     C     0.18398   0.59270   0.36556   0.01267  Uiso   1.00
C7     C     0.27766   0.09580   0.87032   0.01267  Uiso   1.00
C8     C     0.43543   0.01460   0.94546   0.01267  Uiso   1.00
C9     C     0.36160   0.00410   0.04520   0.01267  Uiso   1.00
C10    C     0.13018   0.07950   0.06536   0.01267  Uiso   1.00
C11    C     0.98465   0.16050   0.98650   0.01267  Uiso   1.00
C12    C     0.52420   0.91510   0.13060   0.01267  Uiso   1.00
C13    C     0.07937   0.98990   0.37854   0.01267  Uiso   1.00
C14    C     0.04037   0.05650   0.46974   0.01267  Uiso   1.00
C15    C     0.87621   0.01960   0.53602   0.01267  Uiso   1.00
C16    C     0.75563   0.91670   0.50746   0.01267  Uiso   1.00
C17    C     0.80307   0.85440   0.41514   0.01267  Uiso   1.00
C18    C     0.81842   0.09270   0.63444   0.01267  Uiso   1.00
C19    C     0.40734   0.59580   0.12968   0.01267  Uiso   1.00
C20    C     0.48997   0.51460   0.05454   0.01267  Uiso   1.00
C21    C     0.31640   0.50410   0.95480   0.01267  Uiso   1.00
C22    C     0.06482   0.57950   0.93464   0.01267  Uiso   1.00
C23    C     0.99815   0.66050   0.01350   0.01267  Uiso   1.00
C24    C     0.39360   0.41510   0.86940   0.01267  Uiso   1.00
N1     N     0.61308   0.39000   0.64896   0.01267  Uiso   1.00
N2     N     0.05342   0.16910   0.88964   0.01267  Uiso   1.00
N3     N     0.96412   0.89000   0.35104   0.01267  Uiso   1.00
N4     N     0.16378   0.66910   0.11036   0.01267  Uiso   1.00
O1     O     0.29713   0.68070   0.34286   0.01267  Uiso   1.00
O2     O     0.96195   0.56520   0.31690   0.01267  Uiso   1.00
O3     O     0.77195   0.87703   0.11930   0.01267  Uiso   1.00
O4     O     0.41146   0.88651   0.20412   0.01267  Uiso   1.00
O5     O     0.95427   0.18070   0.65714   0.01267  Uiso   1.00
O6     O     0.64505   0.06520   0.68310   0.01267  Uiso   1.00
O7     O     0.65265   0.37703   0.88070   0.01267  Uiso   1.00
O8     O     0.20734   0.38651   0.79588   0.01267  Uiso   1.00
