data_UFUMUD02_clean
_audit_creation_date              2014-07-02
_audit_creation_method            'Materials Studio'
_symmetry_space_group_name_H-M    'P1'
_symmetry_Int_Tables_number       1
_symmetry_cell_setting            triclinic
loop_
_symmetry_equiv_pos_as_xyz
  x,y,z
_cell_length_a                    4.9737
_cell_length_b                    11.0111
_cell_length_c                    12.7558
_cell_angle_alpha                 91.6474
_cell_angle_beta                  101.2420
_cell_angle_gamma                 81.5202
loop_
_atom_site_label
_atom_site_type_symbol
_atom_site_fract_x
_atom_site_fract_y
_atom_site_fract_z
_atom_site_U_iso_or_equiv
_atom_site_adp_type
_atom_site_occupancy
Cu1    Cu    0.82201   0.61544   0.22702   0.01267  Uiso   1.00
Cu2    Cu    0.59499   0.11544   0.77298   0.01267  Uiso   1.00
H1     H     0.58150   0.82000   0.87160   0.01267  Uiso   1.00
H2     H     0.81730   0.67870   0.00240   0.01267  Uiso   1.00
H3     H     0.31110   0.80090   0.18880   0.01267  Uiso   1.00
H4     H     0.07930   0.94420   0.06740   0.01267  Uiso   1.00
H5     H     0.32390   0.61540   0.39100   0.01267  Uiso   1.00
H6     H     0.54160   0.51920   0.54680   0.01267  Uiso   1.00
H7     H     0.02630   0.27130   0.49100   0.01267  Uiso   1.00
H8     H     0.78950   0.38210   0.33540   0.01267  Uiso   1.00
H9     H     0.70990   0.32000   0.12840   0.01267  Uiso   1.00
H10    H     0.81490   0.17870   0.99760   0.01267  Uiso   1.00
H11    H     0.12230   0.30090   0.81120   0.01267  Uiso   1.00
H12    H     0.01190   0.44420   0.93260   0.01267  Uiso   1.00
H13    H     0.93290   0.11540   0.60900   0.01267  Uiso   1.00
H14    H     0.99480   0.01920   0.45320   0.01267  Uiso   1.00
H15    H     0.53530   0.77130   0.50900   0.01267  Uiso   1.00
H16    H     0.45410   0.88210   0.66460   0.01267  Uiso   1.00
C1     C     0.12950   0.98400   0.86700   0.01267  Uiso   1.00
C2     C     0.28850   0.89600   0.95100   0.01267  Uiso   1.00
C3     C     0.51990   0.81760   0.93580   0.01267  Uiso   1.00
C4     C     0.66720   0.73320   0.01640   0.01267  Uiso   1.00
C5     C     0.37130   0.80570   0.12460   0.01267  Uiso   1.00
C6     C     0.22610   0.88970   0.05020   0.01267  Uiso   1.00
C7     C     0.26050   0.54600   0.41100   0.01267  Uiso   1.00
C8     C     0.39430   0.48690   0.50460   0.01267  Uiso   1.00
C9     C     0.31770   0.38220   0.53740   0.01267  Uiso   1.00
C10    C     0.08820   0.34180   0.47240   0.01267  Uiso   1.00
C11    C     0.94620   0.40840   0.37640   0.01267  Uiso   1.00
C12    C     0.45300   0.31160   0.63400   0.01267  Uiso   1.00
C13    C     0.26250   0.48400   0.13300   0.01267  Uiso   1.00
C14    C     0.33750   0.39600   0.04900   0.01267  Uiso   1.00
C15    C     0.58410   0.31760   0.06420   0.01267  Uiso   1.00
C16    C     0.65080   0.23320   0.98360   0.01267  Uiso   1.00
C17    C     0.24670   0.30570   0.87540   0.01267  Uiso   1.00
C18    C     0.17590   0.38970   0.94980   0.01267  Uiso   1.00
C19    C     0.84950   0.04600   0.58900   0.01267  Uiso   1.00
C20    C     0.88970   0.98690   0.49540   0.01267  Uiso   1.00
C21    C     0.78030   0.88220   0.46260   0.01267  Uiso   1.00
C22    C     0.61580   0.84180   0.52760   0.01267  Uiso   1.00
C23    C     0.56980   0.90840   0.62360   0.01267  Uiso   1.00
C24    C     0.81900   0.81160   0.36600   0.01267  Uiso   1.00
N1     N     0.59660   0.73010   0.10920   0.01267  Uiso   1.00
N2     N     0.03750   0.50600   0.34700   0.01267  Uiso   1.00
N3     N     0.48740   0.23010   0.89080   0.01267  Uiso   1.00
N4     N     0.69050   0.00600   0.65300   0.01267  Uiso   1.00
O1     O     0.24040   0.00920   0.79280   0.01267  Uiso   1.00
O2     O     0.88390   0.02130   0.87780   0.01267  Uiso   1.00
O3     O     0.67650   0.34430   0.68300   0.01267  Uiso   1.00
O4     O     0.35730   0.21840   0.65660   0.01267  Uiso   1.00
O5     O     0.44760   0.50920   0.20720   0.01267  Uiso   1.00
O6     O     0.00610   0.52130   0.12220   0.01267  Uiso   1.00
O7     O     0.99350   0.84430   0.31700   0.01267  Uiso   1.00
O8     O     0.70070   0.71840   0.34340   0.01267  Uiso   1.00
