data_UFUTIY_clean
_audit_creation_date              2014-07-02
_audit_creation_method            'Materials Studio'
_symmetry_space_group_name_H-M    'P1'
_symmetry_Int_Tables_number       1
_symmetry_cell_setting            triclinic
loop_
_symmetry_equiv_pos_as_xyz
  x,y,z
_cell_length_a                    9.7949
_cell_length_b                    9.9224
_cell_length_c                    12.8401
_cell_angle_alpha                 74.8400
_cell_angle_beta                  74.2380
_cell_angle_gamma                 85.7820
loop_
_atom_site_label
_atom_site_type_symbol
_atom_site_fract_x
_atom_site_fract_y
_atom_site_fract_z
_atom_site_U_iso_or_equiv
_atom_site_adp_type
_atom_site_occupancy
Cu1    Cu    0.87853   0.64932   0.72049   0.01267  Uiso   1.00
Cu2    Cu    0.23109   0.48096   0.72989   0.01267  Uiso   1.00
Cu3    Cu    0.12147   0.35068   0.27951   0.01267  Uiso   1.00
Cu4    Cu    0.76891   0.51904   0.27011   0.01267  Uiso   1.00
Mo1    Mo    0.15457   0.88838   0.69377   0.01267  Uiso   1.00
Mo2    Mo    0.43561   0.12071   0.58472   0.01267  Uiso   1.00
Mo3    Mo    0.47503   0.75839   0.68230   0.01267  Uiso   1.00
Mo4    Mo    0.25320   0.00589   0.42121   0.01267  Uiso   1.00
Mo5    Mo    0.84543   0.11162   0.30623   0.01267  Uiso   1.00
Mo6    Mo    0.56439   0.87929   0.41528   0.01267  Uiso   1.00
Mo7    Mo    0.52497   0.24161   0.31770   0.01267  Uiso   1.00
Mo8    Mo    0.74680   0.99411   0.57879   0.01267  Uiso   1.00
H1     H     0.84370   0.36800   0.09720   0.01267  Uiso   1.00
H2     H     0.76760   0.79660   0.89520   0.01267  Uiso   1.00
H3     H     0.87800   0.40770   0.91160   0.01267  Uiso   1.00
H4     H     0.70230   0.75820   0.18750   0.01267  Uiso   1.00
H5     H     0.78220   0.86930   0.08090   0.01267  Uiso   1.00
H6     H     0.62400   0.83210   0.09620   0.01267  Uiso   1.00
H7     H     0.67330   0.41610   0.50730   0.01267  Uiso   1.00
H8     H     0.73300   0.43340   0.76530   0.01267  Uiso   1.00
H9     H     0.59990   0.41650   0.72420   0.01267  Uiso   1.00
H10    H     0.72700   0.31120   0.71010   0.01267  Uiso   1.00
H11    H     0.95580   0.70250   0.32270   0.01267  Uiso   1.00
H12    H     0.99380   0.73760   0.48290   0.01267  Uiso   1.00
H13    H     0.15630   0.63200   0.90280   0.01267  Uiso   1.00
H14    H     0.23240   0.20340   0.10480   0.01267  Uiso   1.00
H15    H     0.12200   0.59230   0.08840   0.01267  Uiso   1.00
H16    H     0.29770   0.24180   0.81250   0.01267  Uiso   1.00
H17    H     0.21780   0.13070   0.91910   0.01267  Uiso   1.00
H18    H     0.37600   0.16790   0.90380   0.01267  Uiso   1.00
H19    H     0.32670   0.58390   0.49270   0.01267  Uiso   1.00
H20    H     0.26700   0.56660   0.23470   0.01267  Uiso   1.00
H21    H     0.40010   0.58350   0.27580   0.01267  Uiso   1.00
H22    H     0.27300   0.68880   0.28990   0.01267  Uiso   1.00
H23    H     0.04420   0.29750   0.67730   0.01267  Uiso   1.00
H24    H     0.00620   0.26240   0.51710   0.01267  Uiso   1.00
C1     C     0.76180   0.68340   0.04970   0.01267  Uiso   1.00
C2     C     0.82870   0.45770   0.05670   0.01267  Uiso   1.00
C3     C     0.78620   0.70810   0.93570   0.01267  Uiso   1.00
C4     C     0.85120   0.48160   0.94500   0.01267  Uiso   1.00
C5     C     0.71330   0.79570   0.10880   0.01267  Uiso   1.00
C6     C     0.76990   0.49950   0.59530   0.01267  Uiso   1.00
C7     C     0.74100   0.48140   0.50020   0.01267  Uiso   1.00
C8     C     0.70120   0.40670   0.70910   0.01267  Uiso   1.00
C9     C     0.90530   0.65050   0.39230   0.01267  Uiso   1.00
C10    C     0.92920   0.67010   0.48890   0.01267  Uiso   1.00
C11    C     0.23820   0.31660   0.95030   0.01267  Uiso   1.00
C12    C     0.17130   0.54230   0.94330   0.01267  Uiso   1.00
C13    C     0.21380   0.29190   0.06430   0.01267  Uiso   1.00
C14    C     0.14880   0.51840   0.05500   0.01267  Uiso   1.00
C15    C     0.28670   0.20430   0.89120   0.01267  Uiso   1.00
C16    C     0.23010   0.50050   0.40470   0.01267  Uiso   1.00
C17    C     0.25900   0.51860   0.49980   0.01267  Uiso   1.00
C18    C     0.29880   0.59330   0.29090   0.01267  Uiso   1.00
C19    C     0.09470   0.34950   0.60770   0.01267  Uiso   1.00
C20    C     0.07080   0.32990   0.51110   0.01267  Uiso   1.00
N1     N     0.83580   0.60970   0.88090   0.01267  Uiso   1.00
N2     N     0.80750   0.55490   0.39920   0.01267  Uiso   1.00
N3     N     0.86250   0.59500   0.58990   0.01267  Uiso   1.00
N4     N     0.78640   0.55520   0.11130   0.01267  Uiso   1.00
N5     N     0.16420   0.39030   0.11910   0.01267  Uiso   1.00
N6     N     0.19250   0.44510   0.60080   0.01267  Uiso   1.00
N7     N     0.13750   0.40500   0.41010   0.01267  Uiso   1.00
N8     N     0.21360   0.44480   0.88870   0.01267  Uiso   1.00
O1     O     0.30080   0.81620   0.76790   0.01267  Uiso   1.00
O2     O     0.41800   0.61270   0.65750   0.01267  Uiso   1.00
O3     O     0.54410   0.98350   0.66730   0.01267  Uiso   1.00
O4     O     0.36510   0.19110   0.45210   0.01267  Uiso   1.00
O5     O     0.38370   0.91150   0.54550   0.01267  Uiso   1.00
O6     O     0.26970   0.08070   0.68050   0.01267  Uiso   1.00
O7     O     0.12320   0.00750   0.56040   0.01267  Uiso   1.00
O8     O     0.18390   0.13350   0.33030   0.01267  Uiso   1.00
O9     O     0.69920   0.18380   0.23210   0.01267  Uiso   1.00
O10    O     0.58200   0.38730   0.34250   0.01267  Uiso   1.00
O11    O     0.45590   0.01650   0.33270   0.01267  Uiso   1.00
O12    O     0.63490   0.80890   0.54790   0.01267  Uiso   1.00
O13    O     0.61630   0.08850   0.45450   0.01267  Uiso   1.00
O14    O     0.73030   0.91930   0.31950   0.01267  Uiso   1.00
O15    O     0.87680   0.99250   0.43960   0.01267  Uiso   1.00
O16    O     0.81610   0.86650   0.66970   0.01267  Uiso   1.00
