data_UJARAZ_clean
_audit_creation_date              2014-07-02
_audit_creation_method            'Materials Studio'
_symmetry_space_group_name_H-M    'P1'
_symmetry_Int_Tables_number       1
_symmetry_cell_setting            triclinic
loop_
_symmetry_equiv_pos_as_xyz
  x,y,z
_cell_length_a                    10.0777
_cell_length_b                    11.0012
_cell_length_c                    15.0573
_cell_angle_alpha                 72.9490
_cell_angle_beta                  77.0468
_cell_angle_gamma                 81.3705
loop_
_atom_site_label
_atom_site_type_symbol
_atom_site_fract_x
_atom_site_fract_y
_atom_site_fract_z
_atom_site_U_iso_or_equiv
_atom_site_adp_type
_atom_site_occupancy
Ni1    Ni    0.49609   0.35831   0.50768   0.01267  Uiso   1.00
Ni2    Ni    0.63681   0.40881   0.67501   0.01267  Uiso   1.00
Ni3    Ni    0.50391   0.64169   0.49232   0.01267  Uiso   1.00
Ni4    Ni    0.36319   0.59119   0.32499   0.01267  Uiso   1.00
H1     H     0.59910   0.95270   0.58260   0.01267  Uiso   1.00
H2     H     0.83790   0.66780   0.72980   0.01267  Uiso   1.00
H3     H     0.83670   0.03100   0.73970   0.01267  Uiso   1.00
H4     H     0.95980   0.62720   0.82510   0.01267  Uiso   1.00
H5     H     0.10390   0.68340   0.77240   0.01267  Uiso   1.00
H6     H     0.10580   0.74830   0.91400   0.01267  Uiso   1.00
H7     H     0.12010   0.59590   0.93150   0.01267  Uiso   1.00
H8     H     0.72830   0.65590   0.10620   0.01267  Uiso   1.00
H9     H     0.90320   0.62160   0.33150   0.01267  Uiso   1.00
H10    H     0.14040   0.65010   0.07070   0.01267  Uiso   1.00
H11    H     0.61310   0.41020   0.33220   0.01267  Uiso   1.00
H12    H     0.64080   0.39660   0.42900   0.01267  Uiso   1.00
H13    H     0.40090   0.04730   0.41740   0.01267  Uiso   1.00
H14    H     0.16210   0.33220   0.27020   0.01267  Uiso   1.00
H15    H     0.16330   0.96900   0.26030   0.01267  Uiso   1.00
H16    H     0.04020   0.37280   0.17490   0.01267  Uiso   1.00
H17    H     0.89610   0.31660   0.22760   0.01267  Uiso   1.00
H18    H     0.89420   0.25170   0.08600   0.01267  Uiso   1.00
H19    H     0.87990   0.40410   0.06850   0.01267  Uiso   1.00
H20    H     0.27170   0.34410   0.89380   0.01267  Uiso   1.00
H21    H     0.09680   0.37840   0.66850   0.01267  Uiso   1.00
H22    H     0.85960   0.34990   0.92930   0.01267  Uiso   1.00
H23    H     0.38690   0.58980   0.66780   0.01267  Uiso   1.00
H24    H     0.35920   0.60340   0.57100   0.01267  Uiso   1.00
C1     C     0.65290   0.15080   0.63249   0.01267  Uiso   1.00
C2     C     0.70760   0.01290   0.65855   0.01267  Uiso   1.00
C3     C     0.66170   0.92490   0.62475   0.01267  Uiso   1.00
C4     C     0.70750   0.79650   0.65261   0.01267  Uiso   1.00
C5     C     0.64850   0.70070   0.62339   0.01267  Uiso   1.00
C6     C     0.80570   0.75550   0.71116   0.01267  Uiso   1.00
C7     C     0.85490   0.84510   0.74127   0.01267  Uiso   1.00
C8     C     0.80480   0.97130   0.71676   0.01267  Uiso   1.00
C9     C     0.02100   0.69200   0.82070   0.01267  Uiso   1.00
C10    C     0.05880   0.67490   0.91509   0.01267  Uiso   1.00
C11    C     0.93470   0.65630   0.07425   0.01267  Uiso   1.00
C12    C     0.80710   0.65140   0.13217   0.01267  Uiso   1.00
C13    C     0.79310   0.63990   0.22872   0.01267  Uiso   1.00
C14    C     0.65570   0.63660   0.29169   0.01267  Uiso   1.00
C15    C     0.91110   0.63060   0.26584   0.01267  Uiso   1.00
C16    C     0.03800   0.63450   0.20816   0.01267  Uiso   1.00
C17    C     0.16280   0.62200   0.24983   0.01267  Uiso   1.00
C18    C     0.05270   0.64740   0.11064   0.01267  Uiso   1.00
C19    C     0.34710   0.84920   0.36751   0.01267  Uiso   1.00
C20    C     0.29240   0.98710   0.34145   0.01267  Uiso   1.00
C21    C     0.33830   0.07510   0.37525   0.01267  Uiso   1.00
C22    C     0.29250   0.20350   0.34739   0.01267  Uiso   1.00
C23    C     0.35150   0.29930   0.37661   0.01267  Uiso   1.00
C24    C     0.19430   0.24450   0.28884   0.01267  Uiso   1.00
C25    C     0.14510   0.15490   0.25873   0.01267  Uiso   1.00
C26    C     0.19520   0.02870   0.28324   0.01267  Uiso   1.00
C27    C     0.97900   0.30800   0.17930   0.01267  Uiso   1.00
C28    C     0.94120   0.32510   0.08491   0.01267  Uiso   1.00
C29    C     0.06530   0.34370   0.92575   0.01267  Uiso   1.00
C30    C     0.19290   0.34860   0.86783   0.01267  Uiso   1.00
C31    C     0.20690   0.36010   0.77128   0.01267  Uiso   1.00
C32    C     0.34430   0.36340   0.70831   0.01267  Uiso   1.00
C33    C     0.08890   0.36940   0.73416   0.01267  Uiso   1.00
C34    C     0.96200   0.36550   0.79184   0.01267  Uiso   1.00
C35    C     0.83720   0.37800   0.75017   0.01267  Uiso   1.00
C36    C     0.94730   0.35260   0.88936   0.01267  Uiso   1.00
O1     O     0.66812   0.21843   0.68380   0.01267  Uiso   1.00
O2     O     0.59656   0.18693   0.56141   0.01267  Uiso   1.00
O3     O     0.62281   0.73485   0.54027   0.01267  Uiso   1.00
O4     O     0.62680   0.59613   0.68346   0.01267  Uiso   1.00
O5     O     0.95241   0.81849   0.79636   0.01267  Uiso   1.00
O6     O     0.93446   0.66720   0.98098   0.01267  Uiso   1.00
O7     O     0.64681   0.66448   0.36837   0.01267  Uiso   1.00
O8     O     0.56047   0.60409   0.26364   0.01267  Uiso   1.00
O9     O     0.14896   0.59134   0.33997   0.01267  Uiso   1.00
O10    O     0.27902   0.63891   0.19753   0.01267  Uiso   1.00
O11    O     0.61125   0.46819   0.54143   0.01267  Uiso   1.00
O12    O     0.64494   0.35974   0.38274   0.01267  Uiso   1.00
O13    O     0.33188   0.78157   0.31620   0.01267  Uiso   1.00
O14    O     0.40344   0.81307   0.43859   0.01267  Uiso   1.00
O15    O     0.37719   0.26515   0.45973   0.01267  Uiso   1.00
O16    O     0.37320   0.40387   0.31654   0.01267  Uiso   1.00
O17    O     0.04759   0.18151   0.20364   0.01267  Uiso   1.00
O18    O     0.06554   0.33280   0.01902   0.01267  Uiso   1.00
O19    O     0.35319   0.33552   0.63163   0.01267  Uiso   1.00
O20    O     0.43953   0.39591   0.73636   0.01267  Uiso   1.00
O21    O     0.85104   0.40866   0.66003   0.01267  Uiso   1.00
O22    O     0.72098   0.36109   0.80247   0.01267  Uiso   1.00
O23    O     0.38875   0.53181   0.45857   0.01267  Uiso   1.00
O24    O     0.35506   0.64026   0.61726   0.01267  Uiso   1.00
