data_UJOWIA_charged
_audit_creation_date              2014-07-02
_audit_creation_method            'Materials Studio'
_symmetry_space_group_name_H-M    'P1'
_symmetry_Int_Tables_number       1
_symmetry_cell_setting            triclinic
loop_
_symmetry_equiv_pos_as_xyz
  x,y,z
_cell_length_a                    12.1408
_cell_length_b                    12.1408
_cell_length_c                    19.3937
_cell_angle_alpha                 108.2410
_cell_angle_beta                  108.2410
_cell_angle_gamma                 90.0002
loop_
_atom_site_label
_atom_site_type_symbol
_atom_site_fract_x
_atom_site_fract_y
_atom_site_fract_z
_atom_site_U_iso_or_equiv
_atom_site_adp_type
_atom_site_occupancy
Co1    Co    0.00000   0.50000   0.50000   0.01267  Uiso   1.00
Co2    Co    0.00000   0.00000   0.50000   0.01267  Uiso   1.00
Co3    Co    0.00000   0.50000  -0.00000   0.01267  Uiso   1.00
Co4    Co    0.50000   0.50000   0.00000   0.01267  Uiso   1.00
H1     H     0.11890   0.70430   0.47860   0.01267  Uiso   1.00
H2     H     0.36270   0.58160   0.54580   0.01267  Uiso   1.00
H3     H     0.44420   0.70280   0.57980   0.01267  Uiso   1.00
H4     H     0.42340   0.62020   0.49340   0.01267  Uiso   1.00
H5     H     0.96440   0.86110   0.64040   0.01267  Uiso   1.00
H6     H     0.01790   0.90590   0.73220   0.01267  Uiso   1.00
H7     H     0.88100   0.90380   0.69100   0.01267  Uiso   1.00
H8     H     0.23160   0.83840   0.46740   0.01267  Uiso   1.00
H9     H     0.34160   0.78660   0.44500   0.01267  Uiso   1.00
H10    H     0.35870   0.86900   0.53100   0.01267  Uiso   1.00
H11    H     0.92860   0.57960   0.63840   0.01267  Uiso   1.00
H12    H     0.89260   0.65150   0.74740   0.01267  Uiso   1.00
H13    H     0.83560   0.77190   0.75840   0.01267  Uiso   1.00
H14    H     0.97180   0.77170   0.80100   0.01267  Uiso   1.00
H15    H     0.85970   0.77430   0.47860   0.01267  Uiso   1.00
H16    H     0.68310   0.96420   0.54580   0.01267  Uiso   1.00
H17    H     0.63560   0.87700   0.57980   0.01267  Uiso   1.00
H18    H     0.57000   0.87320   0.49340   0.01267  Uiso   1.00
H19    H     0.17600   0.77930   0.64040   0.01267  Uiso   1.00
H20    H     0.21430   0.82630   0.73220   0.01267  Uiso   1.00
H21    H     0.31000   0.78720   0.69100   0.01267  Uiso   1.00
H22    H     0.73580   0.62900   0.46740   0.01267  Uiso   1.00
H23    H     0.60340   0.65840   0.44500   0.01267  Uiso   1.00
H24    H     0.67230   0.66200   0.53100   0.01267  Uiso   1.00
H25    H     0.20980   0.05880   0.63840   0.01267  Uiso   1.00
H26    H     0.35480   0.09590   0.74740   0.01267  Uiso   1.00
H27    H     0.42280   0.98650   0.75840   0.01267  Uiso   1.00
H28    H     0.32920   0.02930   0.80100   0.01267  Uiso   1.00
H29    H     0.20430   0.35970   0.97860   0.01267  Uiso   1.00
H30    H     0.08160   0.18310   0.04580   0.01267  Uiso   1.00
H31    H     0.20280   0.13560   0.07980   0.01267  Uiso   1.00
H32    H     0.12020   0.07000   0.99340   0.01267  Uiso   1.00
H33    H     0.36110   0.67600   0.14040   0.01267  Uiso   1.00
H34    H     0.40590   0.71430   0.23220   0.01267  Uiso   1.00
H35    H     0.40380   0.81000   0.19100   0.01267  Uiso   1.00
H36    H     0.33840   0.23580   0.96740   0.01267  Uiso   1.00
H37    H     0.28660   0.10340   0.94500   0.01267  Uiso   1.00
H38    H     0.36900   0.17230   0.03100   0.01267  Uiso   1.00
H39    H     0.07960   0.70980   0.13840   0.01267  Uiso   1.00
H40    H     0.15150   0.85480   0.24740   0.01267  Uiso   1.00
H41    H     0.27190   0.92280   0.25840   0.01267  Uiso   1.00
H42    H     0.27170   0.82920   0.30100   0.01267  Uiso   1.00
H43    H     0.27430   0.61890   0.97860   0.01267  Uiso   1.00
H44    H     0.46420   0.86270   0.04580   0.01267  Uiso   1.00
H45    H     0.37700   0.94420   0.07980   0.01267  Uiso   1.00
H46    H     0.37320   0.92340   0.99340   0.01267  Uiso   1.00
H47    H     0.27930   0.46440   0.14040   0.01267  Uiso   1.00
H48    H     0.32630   0.51790   0.23220   0.01267  Uiso   1.00
H49    H     0.28720   0.38100   0.19100   0.01267  Uiso   1.00
H50    H     0.12900   0.73160   0.96740   0.01267  Uiso   1.00
H51    H     0.15840   0.84160   0.94500   0.01267  Uiso   1.00
H52    H     0.16200   0.85870   0.03100   0.01267  Uiso   1.00
H53    H     0.55880   0.42860   0.13840   0.01267  Uiso   1.00
H54    H     0.59590   0.39260   0.24740   0.01267  Uiso   1.00
H55    H     0.48650   0.33560   0.25840   0.01267  Uiso   1.00
H56    H     0.52930   0.47180   0.30100   0.01267  Uiso   1.00
H57    H     0.88110   0.29570   0.52140   0.01267  Uiso   1.00
H58    H     0.63730   0.41840   0.45420   0.01267  Uiso   1.00
H59    H     0.55580   0.29720   0.42020   0.01267  Uiso   1.00
H60    H     0.57660   0.37980   0.50660   0.01267  Uiso   1.00
H61    H     0.03560   0.13890   0.35960   0.01267  Uiso   1.00
H62    H     0.98210   0.09410   0.26780   0.01267  Uiso   1.00
H63    H     0.11900   0.09620   0.30900   0.01267  Uiso   1.00
H64    H     0.76840   0.16160   0.53260   0.01267  Uiso   1.00
H65    H     0.65840   0.21340   0.55500   0.01267  Uiso   1.00
H66    H     0.64130   0.13100   0.46900   0.01267  Uiso   1.00
H67    H     0.07140   0.42040   0.36160   0.01267  Uiso   1.00
H68    H     0.10740   0.34850   0.25260   0.01267  Uiso   1.00
H69    H     0.16440   0.22810   0.24160   0.01267  Uiso   1.00
H70    H     0.02820   0.22830   0.19900   0.01267  Uiso   1.00
H71    H     0.14030   0.22570   0.52140   0.01267  Uiso   1.00
H72    H     0.31690   0.03580   0.45420   0.01267  Uiso   1.00
H73    H     0.36440   0.12300   0.42020   0.01267  Uiso   1.00
H74    H     0.43000   0.12680   0.50660   0.01267  Uiso   1.00
H75    H     0.82400   0.22070   0.35960   0.01267  Uiso   1.00
H76    H     0.78570   0.17370   0.26780   0.01267  Uiso   1.00
H77    H     0.69000   0.21280   0.30900   0.01267  Uiso   1.00
H78    H     0.26420   0.37100   0.53260   0.01267  Uiso   1.00
H79    H     0.39660   0.34160   0.55500   0.01267  Uiso   1.00
H80    H     0.32770   0.33800   0.46900   0.01267  Uiso   1.00
H81    H     0.79020   0.94120   0.36160   0.01267  Uiso   1.00
H82    H     0.64520   0.90410   0.25260   0.01267  Uiso   1.00
H83    H     0.57720   0.01350   0.24160   0.01267  Uiso   1.00
H84    H     0.67080   0.97070   0.19900   0.01267  Uiso   1.00
H85    H     0.79570   0.64030   0.02140   0.01267  Uiso   1.00
H86    H     0.91840   0.81690   0.95420   0.01267  Uiso   1.00
H87    H     0.79720   0.86440   0.92020   0.01267  Uiso   1.00
H88    H     0.87980   0.93000   0.00660   0.01267  Uiso   1.00
H89    H     0.63890   0.32400   0.85960   0.01267  Uiso   1.00
H90    H     0.59410   0.28570   0.76780   0.01267  Uiso   1.00
H91    H     0.59620   0.19000   0.80900   0.01267  Uiso   1.00
H92    H     0.66160   0.76420   0.03260   0.01267  Uiso   1.00
H93    H     0.71340   0.89660   0.05500   0.01267  Uiso   1.00
H94    H     0.63100   0.82770   0.96900   0.01267  Uiso   1.00
H95    H     0.92040   0.29020   0.86160   0.01267  Uiso   1.00
H96    H     0.84850   0.14520   0.75260   0.01267  Uiso   1.00
H97    H     0.72810   0.07720   0.74160   0.01267  Uiso   1.00
H98    H     0.72830   0.17080   0.69900   0.01267  Uiso   1.00
H99    H     0.72570   0.38110   0.02140   0.01267  Uiso   1.00
H100   H     0.53580   0.13730   0.95420   0.01267  Uiso   1.00
H101   H     0.62300   0.05580   0.92020   0.01267  Uiso   1.00
H102   H     0.62680   0.07660   0.00660   0.01267  Uiso   1.00
H103   H     0.72070   0.53560   0.85960   0.01267  Uiso   1.00
H104   H     0.67370   0.48210   0.76780   0.01267  Uiso   1.00
H105   H     0.71280   0.61900   0.80900   0.01267  Uiso   1.00
H106   H     0.87100   0.26840   0.03260   0.01267  Uiso   1.00
H107   H     0.84160   0.15840   0.05500   0.01267  Uiso   1.00
H108   H     0.83800   0.14130   0.96900   0.01267  Uiso   1.00
H109   H     0.44120   0.57140   0.86160   0.01267  Uiso   1.00
H110   H     0.40410   0.60740   0.75260   0.01267  Uiso   1.00
H111   H     0.51350   0.66440   0.74160   0.01267  Uiso   1.00
H112   H     0.47070   0.52820   0.69900   0.01267  Uiso   1.00
W1     W     0.12500   0.37500   0.75000   0.01267  Uiso   1.00
W2     W     0.87500   0.62500   0.25000   0.01267  Uiso   1.00
C1     C     0.18253   0.55883   0.78626   0.01267  Uiso   1.00
C2     C     0.09982   0.42430   0.64914   0.01267  Uiso   1.00
C3     C     0.18254   0.66394   0.49708   0.01267  Uiso   1.00
C4     C     0.38747   0.64807   0.53354   0.01267  Uiso   1.00
C5     C     0.95012   0.86372   0.68784   0.01267  Uiso   1.00
C6     C     0.30630   0.80840   0.48580   0.01267  Uiso   1.00
C7     C     0.94215   0.65355   0.63370   0.01267  Uiso   1.00
C8     C     0.90577   0.73437   0.75414   0.01267  Uiso   1.00
C9     C     0.10373   0.22743   0.78626   0.01267  Uiso   1.00
C10    C     0.04932   0.22484   0.64914   0.01267  Uiso   1.00
C11    C     0.81454   0.83314   0.49708   0.01267  Uiso   1.00
C12    C     0.64607   0.88547   0.53354   0.01267  Uiso   1.00
C13    C     0.23772   0.82412   0.68784   0.01267  Uiso   1.00
C14    C     0.67950   0.67740   0.48580   0.01267  Uiso   1.00
C15    C     0.19155   0.98015   0.63370   0.01267  Uiso   1.00
C16    C     0.34837   0.01977   0.75414   0.01267  Uiso   1.00
C17    C     0.05883   0.60373   0.28626   0.01267  Uiso   1.00
C18    C     0.92430   0.54932   0.14914   0.01267  Uiso   1.00
C19    C     0.16394   0.31454   0.99708   0.01267  Uiso   1.00
C20    C     0.14807   0.14607   0.03354   0.01267  Uiso   1.00
C21    C     0.36372   0.73772   0.18784   0.01267  Uiso   1.00
C22    C     0.30840   0.17950   0.98580   0.01267  Uiso   1.00
C23    C     0.15355   0.69155   0.13370   0.01267  Uiso   1.00
C24    C     0.23437   0.84837   0.25414   0.01267  Uiso   1.00
C25    C     0.72743   0.68253   0.28626   0.01267  Uiso   1.00
C26    C     0.72484   0.59982   0.14914   0.01267  Uiso   1.00
C27    C     0.33314   0.68254   0.99708   0.01267  Uiso   1.00
C28    C     0.38547   0.88747   0.03354   0.01267  Uiso   1.00
C29    C     0.32412   0.45012   0.18784   0.01267  Uiso   1.00
C30    C     0.17740   0.80630   0.98580   0.01267  Uiso   1.00
C31    C     0.48015   0.44215   0.13370   0.01267  Uiso   1.00
C32    C     0.51977   0.40577   0.25414   0.01267  Uiso   1.00
C33    C     0.81747   0.44117   0.21374   0.01267  Uiso   1.00
C34    C     0.90018   0.57570   0.35086   0.01267  Uiso   1.00
C35    C     0.81746   0.33606   0.50292   0.01267  Uiso   1.00
C36    C     0.61253   0.35193   0.46646   0.01267  Uiso   1.00
C37    C     0.04988   0.13628   0.31216   0.01267  Uiso   1.00
C38    C     0.69370   0.19160   0.51420   0.01267  Uiso   1.00
C39    C     0.05785   0.34645   0.36630   0.01267  Uiso   1.00
C40    C     0.09423   0.26563   0.24586   0.01267  Uiso   1.00
C41    C     0.89627   0.77257   0.21374   0.01267  Uiso   1.00
C42    C     0.95068   0.77516   0.35086   0.01267  Uiso   1.00
C43    C     0.18546   0.16686   0.50292   0.01267  Uiso   1.00
C44    C     0.35393   0.11453   0.46646   0.01267  Uiso   1.00
C45    C     0.76228   0.17588   0.31216   0.01267  Uiso   1.00
C46    C     0.32050   0.32260   0.51420   0.01267  Uiso   1.00
C47    C     0.80845   0.01985   0.36630   0.01267  Uiso   1.00
C48    C     0.65163   0.98023   0.24586   0.01267  Uiso   1.00
C49    C     0.94117   0.39627   0.71374   0.01267  Uiso   1.00
C50    C     0.07570   0.45068   0.85086   0.01267  Uiso   1.00
C51    C     0.83606   0.68546   0.00292   0.01267  Uiso   1.00
C52    C     0.85193   0.85393   0.96646   0.01267  Uiso   1.00
C53    C     0.63628   0.26228   0.81216   0.01267  Uiso   1.00
C54    C     0.69160   0.82050   0.01420   0.01267  Uiso   1.00
C55    C     0.84645   0.30845   0.86630   0.01267  Uiso   1.00
C56    C     0.76563   0.15163   0.74586   0.01267  Uiso   1.00
C57    C     0.27257   0.31747   0.71374   0.01267  Uiso   1.00
C58    C     0.27516   0.40018   0.85086   0.01267  Uiso   1.00
C59    C     0.66686   0.31746   0.00292   0.01267  Uiso   1.00
C60    C     0.61453   0.11253   0.96646   0.01267  Uiso   1.00
C61    C     0.67588   0.54988   0.81216   0.01267  Uiso   1.00
C62    C     0.82260   0.19370   0.01420   0.01267  Uiso   1.00
C63    C     0.51985   0.55785   0.86630   0.01267  Uiso   1.00
C64    C     0.48023   0.59423   0.74586   0.01267  Uiso   1.00
N1     N     0.93134   0.74620   0.68788   0.01267  Uiso   1.00
N2     N     0.28690   0.70644   0.50652   0.01267  Uiso   1.00
N3     N     0.08041   0.44517   0.59338   0.01267  Uiso   1.00
N4     N     0.21396   0.65597   0.80712   0.01267  Uiso   1.00
N5     N     0.25654   0.94168   0.68788   0.01267  Uiso   1.00
N6     N     0.71962   0.80008   0.50652   0.01267  Uiso   1.00
N7     N     0.01297   0.14821   0.59338   0.01267  Uiso   1.00
N8     N     0.09316   0.15115   0.80712   0.01267  Uiso   1.00
N9     N     0.24620   0.75654   0.18788   0.01267  Uiso   1.00
N10    N     0.20644   0.21962   0.00652   0.01267  Uiso   1.00
N11    N     0.94517   0.51297   0.09338   0.01267  Uiso   1.00
N12    N     0.15597   0.59316   0.30712   0.01267  Uiso   1.00
N13    N     0.44168   0.43134   0.18788   0.01267  Uiso   1.00
N14    N     0.30008   0.78690   0.00652   0.01267  Uiso   1.00
N15    N     0.64821   0.58041   0.09338   0.01267  Uiso   1.00
N16    N     0.65115   0.71396   0.30712   0.01267  Uiso   1.00
N17    N     0.06866   0.25380   0.31212   0.01267  Uiso   1.00
N18    N     0.71310   0.29356   0.49348   0.01267  Uiso   1.00
N19    N     0.91959   0.55483   0.40662   0.01267  Uiso   1.00
N20    N     0.78604   0.34403   0.19288   0.01267  Uiso   1.00
N21    N     0.74346   0.05832   0.31212   0.01267  Uiso   1.00
N22    N     0.28038   0.19992   0.49348   0.01267  Uiso   1.00
N23    N     0.98703   0.85179   0.40662   0.01267  Uiso   1.00
N24    N     0.90684   0.84885   0.19288   0.01267  Uiso   1.00
N25    N     0.75380   0.24346   0.81212   0.01267  Uiso   1.00
N26    N     0.79356   0.78038   0.99348   0.01267  Uiso   1.00
N27    N     0.05483   0.48703   0.90662   0.01267  Uiso   1.00
N28    N     0.84403   0.40684   0.69288   0.01267  Uiso   1.00
N29    N     0.55832   0.56866   0.81212   0.01267  Uiso   1.00
N30    N     0.69992   0.21310   0.99348   0.01267  Uiso   1.00
N31    N     0.35179   0.41959   0.90662   0.01267  Uiso   1.00
N32    N     0.34885   0.28604   0.69288   0.01267  Uiso   1.00
O1     O     0.16047   0.57472   0.51064   0.01267  Uiso   1.00
O2     O     0.96848   0.65471   0.57684   0.01267  Uiso   1.00
O3     O     0.85017   0.93592   0.51064   0.01267  Uiso   1.00
O4     O     0.10836   0.92213   0.57684   0.01267  Uiso   1.00
O5     O     0.07472   0.35017   0.01064   0.01267  Uiso   1.00
O6     O     0.15471   0.60836   0.07684   0.01267  Uiso   1.00
O7     O     0.43592   0.66047   0.01064   0.01267  Uiso   1.00
O8     O     0.42213   0.46848   0.07684   0.01267  Uiso   1.00
O9     O     0.83953   0.42528   0.48936   0.01267  Uiso   1.00
O10    O     0.03152   0.34529   0.42316   0.01267  Uiso   1.00
O11    O     0.14983   0.06408   0.48936   0.01267  Uiso   1.00
O12    O     0.89164   0.07787   0.42316   0.01267  Uiso   1.00
O13    O     0.92528   0.64983   0.98936   0.01267  Uiso   1.00
O14    O     0.84529   0.39164   0.92316   0.01267  Uiso   1.00
O15    O     0.56408   0.33953   0.98936   0.01267  Uiso   1.00
O16    O     0.57787   0.53152   0.92316   0.01267  Uiso   1.00
