data_UNACES_clean
_audit_creation_date              2014-07-02
_audit_creation_method            'Materials Studio'
_symmetry_space_group_name_H-M    'P1'
_symmetry_Int_Tables_number       1
_symmetry_cell_setting            triclinic
loop_
_symmetry_equiv_pos_as_xyz
  x,y,z
_cell_length_a                    8.4970
_cell_length_b                    10.2960
_cell_length_c                    17.6373
_cell_angle_alpha                 90.0000
_cell_angle_beta                  103.1610
_cell_angle_gamma                 90.0000
loop_
_atom_site_label
_atom_site_type_symbol
_atom_site_fract_x
_atom_site_fract_y
_atom_site_fract_z
_atom_site_U_iso_or_equiv
_atom_site_adp_type
_atom_site_occupancy
Cu1    Cu    0.82031   0.55548   0.93216   0.01267  Uiso   1.00
Cu2    Cu    0.32031   0.94452   0.43216   0.01267  Uiso   1.00
H1     H     0.85570   0.34100   0.59420   0.01267  Uiso   1.00
H2     H     0.80950   0.45240   0.70000   0.01267  Uiso   1.00
H3     H     0.53140   0.77260   0.66870   0.01267  Uiso   1.00
H4     H     0.64180   0.59340   0.48390   0.01267  Uiso   1.00
H5     H     0.23470   0.07120   0.56610   0.01267  Uiso   1.00
H6     H     0.07110   0.23490   0.59310   0.01267  Uiso   1.00
H7     H     0.89300   0.27550   0.36410   0.01267  Uiso   1.00
H8     H     0.06280   0.11420   0.34320   0.01267  Uiso   1.00
H9     H     0.35570   0.15900   0.09420   0.01267  Uiso   1.00
H10    H     0.30950   0.04760   0.20000   0.01267  Uiso   1.00
H11    H     0.03140   0.72740   0.16870   0.01267  Uiso   1.00
H12    H     0.14180   0.90660   0.98390   0.01267  Uiso   1.00
H13    H     0.73470   0.42880   0.06610   0.01267  Uiso   1.00
H14    H     0.57110   0.26510   0.09310   0.01267  Uiso   1.00
H15    H     0.39300   0.22450   0.86410   0.01267  Uiso   1.00
H16    H     0.56280   0.38580   0.84320   0.01267  Uiso   1.00
C1     C     0.74048   0.50600   0.58708   0.01267  Uiso   1.00
C2     C     0.75024   0.51410   0.66684   0.01267  Uiso   1.00
C3     C     0.67250   0.61340   0.69760   0.01267  Uiso   1.00
C4     C     0.58338   0.70580   0.64858   0.01267  Uiso   1.00
C5     C     0.57321   0.69670   0.56881   0.01267  Uiso   1.00
C6     C     0.65020   0.59800   0.53730   0.01267  Uiso   1.00
C7     C     0.85816   0.38930   0.49066   0.01267  Uiso   1.00
C8     C     0.16547   0.11340   0.52507   0.01267  Uiso   1.00
C9     C     0.06690   0.21150   0.54180   0.01267  Uiso   1.00
C10    C     0.96263   0.27390   0.48153   0.01267  Uiso   1.00
C11    C     0.96210   0.23560   0.40620   0.01267  Uiso   1.00
C12    C     0.06379   0.13850   0.39409   0.01267  Uiso   1.00
C13    C     0.68837   0.62070   0.78427   0.01267  Uiso   1.00
C14    C     0.48021   0.79480   0.51571   0.01267  Uiso   1.00
C15    C     0.24048   0.99400   0.08708   0.01267  Uiso   1.00
C16    C     0.25024   0.98590   0.16684   0.01267  Uiso   1.00
C17    C     0.17250   0.88660   0.19760   0.01267  Uiso   1.00
C18    C     0.08338   0.79420   0.14858   0.01267  Uiso   1.00
C19    C     0.07321   0.80330   0.06881   0.01267  Uiso   1.00
C20    C     0.15020   0.90200   0.03730   0.01267  Uiso   1.00
C21    C     0.35816   0.11070   0.99066   0.01267  Uiso   1.00
C22    C     0.66547   0.38660   0.02507   0.01267  Uiso   1.00
C23    C     0.56690   0.28850   0.04180   0.01267  Uiso   1.00
C24    C     0.46263   0.22610   0.98153   0.01267  Uiso   1.00
C25    C     0.46210   0.26440   0.90620   0.01267  Uiso   1.00
C26    C     0.56379   0.36150   0.89409   0.01267  Uiso   1.00
C27    C     0.18837   0.87930   0.28427   0.01267  Uiso   1.00
C28    C     0.98021   0.70520   0.01571   0.01267  Uiso   1.00
N1     N     0.82346   0.40250   0.56136   0.01267  Uiso   1.00
N2     N     0.16482   0.07710   0.45262   0.01267  Uiso   1.00
N3     N     0.32346   0.09750   0.06136   0.01267  Uiso   1.00
N4     N     0.66482   0.42290   0.95262   0.01267  Uiso   1.00
O1     O     0.81338   0.46260   0.43638   0.01267  Uiso   1.00
O2     O     0.77951   0.53397   0.82341   0.01267  Uiso   1.00
O3     O     0.61637   0.70460   0.81257   0.01267  Uiso   1.00
O4     O     0.41392   0.89010   0.54192   0.01267  Uiso   1.00
O5     O     0.46617   0.78903   0.44327   0.01267  Uiso   1.00
O6     O     0.31338   0.03740   0.93638   0.01267  Uiso   1.00
O7     O     0.27951   0.96603   0.32341   0.01267  Uiso   1.00
O8     O     0.11637   0.79540   0.31257   0.01267  Uiso   1.00
O9     O     0.91392   0.60990   0.04192   0.01267  Uiso   1.00
O10    O     0.96617   0.71097   0.94327   0.01267  Uiso   1.00
Cu3    Cu    0.67969   0.05548   0.56784   0.01267  Uiso   1.00
Cu4    Cu    0.17969   0.44452   0.06784   0.01267  Uiso   1.00
H17    H     0.64430   0.84100   0.90580   0.01267  Uiso   1.00
H18    H     0.69050   0.95240   0.80000   0.01267  Uiso   1.00
H19    H     0.96860   0.27260   0.83130   0.01267  Uiso   1.00
H20    H     0.85820   0.09340   0.01610   0.01267  Uiso   1.00
H21    H     0.26530   0.57120   0.93390   0.01267  Uiso   1.00
H22    H     0.42890   0.73490   0.90690   0.01267  Uiso   1.00
H23    H     0.60700   0.77550   0.13590   0.01267  Uiso   1.00
H24    H     0.43720   0.61420   0.15680   0.01267  Uiso   1.00
H25    H     0.14430   0.65900   0.40580   0.01267  Uiso   1.00
H26    H     0.19050   0.54760   0.30000   0.01267  Uiso   1.00
H27    H     0.46860   0.22740   0.33130   0.01267  Uiso   1.00
H28    H     0.35820   0.40660   0.51610   0.01267  Uiso   1.00
H29    H     0.76530   0.92880   0.43390   0.01267  Uiso   1.00
H30    H     0.92890   0.76510   0.40690   0.01267  Uiso   1.00
H31    H     0.10700   0.72450   0.63590   0.01267  Uiso   1.00
H32    H     0.93720   0.88580   0.65680   0.01267  Uiso   1.00
C29    C     0.75952   0.00600   0.91292   0.01267  Uiso   1.00
C30    C     0.74976   0.01410   0.83316   0.01267  Uiso   1.00
C31    C     0.82750   0.11340   0.80240   0.01267  Uiso   1.00
C32    C     0.91662   0.20580   0.85142   0.01267  Uiso   1.00
C33    C     0.92679   0.19670   0.93119   0.01267  Uiso   1.00
C34    C     0.84980   0.09800   0.96270   0.01267  Uiso   1.00
C35    C     0.64184   0.88930   0.00934   0.01267  Uiso   1.00
C36    C     0.33453   0.61340   0.97493   0.01267  Uiso   1.00
C37    C     0.43310   0.71150   0.95820   0.01267  Uiso   1.00
C38    C     0.53737   0.77390   0.01847   0.01267  Uiso   1.00
C39    C     0.53790   0.73560   0.09380   0.01267  Uiso   1.00
C40    C     0.43621   0.63850   0.10591   0.01267  Uiso   1.00
C41    C     0.81163   0.12070   0.71573   0.01267  Uiso   1.00
C42    C     0.01979   0.29480   0.98429   0.01267  Uiso   1.00
C43    C     0.25952   0.49400   0.41292   0.01267  Uiso   1.00
C44    C     0.24976   0.48590   0.33316   0.01267  Uiso   1.00
C45    C     0.32750   0.38660   0.30240   0.01267  Uiso   1.00
C46    C     0.41662   0.29420   0.35142   0.01267  Uiso   1.00
C47    C     0.42679   0.30330   0.43119   0.01267  Uiso   1.00
C48    C     0.34980   0.40200   0.46270   0.01267  Uiso   1.00
C49    C     0.14184   0.61070   0.50934   0.01267  Uiso   1.00
C50    C     0.83453   0.88660   0.47493   0.01267  Uiso   1.00
C51    C     0.93310   0.78850   0.45820   0.01267  Uiso   1.00
C52    C     0.03737   0.72610   0.51847   0.01267  Uiso   1.00
C53    C     0.03790   0.76440   0.59380   0.01267  Uiso   1.00
C54    C     0.93621   0.86150   0.60591   0.01267  Uiso   1.00
C55    C     0.31163   0.37930   0.21573   0.01267  Uiso   1.00
C56    C     0.51979   0.20520   0.48429   0.01267  Uiso   1.00
N5     N     0.67654   0.90250   0.93864   0.01267  Uiso   1.00
N6     N     0.33518   0.57710   0.04738   0.01267  Uiso   1.00
N7     N     0.17654   0.59750   0.43864   0.01267  Uiso   1.00
N8     N     0.83518   0.92290   0.54738   0.01267  Uiso   1.00
O11    O     0.68662   0.96260   0.06362   0.01267  Uiso   1.00
O12    O     0.72049   0.03397   0.67659   0.01267  Uiso   1.00
O13    O     0.88363   0.20460   0.68743   0.01267  Uiso   1.00
O14    O     0.08608   0.39010   0.95808   0.01267  Uiso   1.00
O15    O     0.03383   0.28903   0.05673   0.01267  Uiso   1.00
O16    O     0.18662   0.53740   0.56362   0.01267  Uiso   1.00
O17    O     0.22049   0.46603   0.17659   0.01267  Uiso   1.00
O18    O     0.38363   0.29540   0.18743   0.01267  Uiso   1.00
O19    O     0.58608   0.10990   0.45808   0.01267  Uiso   1.00
O20    O     0.53383   0.21097   0.55673   0.01267  Uiso   1.00
