data_UVEVEX_clean
_audit_creation_date              2014-07-02
_audit_creation_method            'Materials Studio'
_symmetry_space_group_name_H-M    'P1'
_symmetry_Int_Tables_number       1
_symmetry_cell_setting            triclinic
loop_
_symmetry_equiv_pos_as_xyz
  x,y,z
_cell_length_a                    11.2140
_cell_length_b                    12.5850
_cell_length_c                    14.4470
_cell_angle_alpha                 90.0000
_cell_angle_beta                  110.1250
_cell_angle_gamma                 90.0000
loop_
_atom_site_label
_atom_site_type_symbol
_atom_site_fract_x
_atom_site_fract_y
_atom_site_fract_z
_atom_site_U_iso_or_equiv
_atom_site_adp_type
_atom_site_occupancy
Mn1    Mn    0.61287   0.58170   0.53287   0.01267  Uiso   1.00
Mn2    Mn    0.38713   0.08170   0.96713   0.01267  Uiso   1.00
Mn3    Mn    0.38713   0.41830   0.46713   0.01267  Uiso   1.00
Mn4    Mn    0.61287   0.91830   0.03287   0.01267  Uiso   1.00
H1     H     0.13230   0.62430   0.56490   0.01267  Uiso   1.00
H2     H     0.13040   0.85280   0.75690   0.01267  Uiso   1.00
H3     H     0.46260   0.74440   0.74570   0.01267  Uiso   1.00
H4     H     0.92600   0.57880   0.60810   0.01267  Uiso   1.00
H5     H     0.92360   0.89020   0.61200   0.01267  Uiso   1.00
H6     H     0.86770   0.12430   0.93510   0.01267  Uiso   1.00
H7     H     0.86960   0.35280   0.74310   0.01267  Uiso   1.00
H8     H     0.53740   0.24440   0.75430   0.01267  Uiso   1.00
H9     H     0.07400   0.07880   0.89190   0.01267  Uiso   1.00
H10    H     0.07640   0.39020   0.88800   0.01267  Uiso   1.00
H11    H     0.86770   0.37570   0.43510   0.01267  Uiso   1.00
H12    H     0.86960   0.14720   0.24310   0.01267  Uiso   1.00
H13    H     0.53740   0.25560   0.25430   0.01267  Uiso   1.00
H14    H     0.07400   0.42120   0.39190   0.01267  Uiso   1.00
H15    H     0.07640   0.10980   0.38800   0.01267  Uiso   1.00
H16    H     0.13230   0.87570   0.06490   0.01267  Uiso   1.00
H17    H     0.13040   0.64720   0.25690   0.01267  Uiso   1.00
H18    H     0.46260   0.75560   0.24570   0.01267  Uiso   1.00
H19    H     0.92600   0.92120   0.10810   0.01267  Uiso   1.00
H20    H     0.92360   0.60980   0.11200   0.01267  Uiso   1.00
C1     C     0.38040   0.60930   0.59610   0.01267  Uiso   1.00
C2     C     0.30910   0.67550   0.64630   0.01267  Uiso   1.00
C3     C     0.17680   0.67120   0.61450   0.01267  Uiso   1.00
C4     C     0.11290   0.73720   0.65730   0.01267  Uiso   1.00
C5     C     0.17580   0.80730   0.73050   0.01267  Uiso   1.00
C6     C     0.30830   0.80970   0.76520   0.01267  Uiso   1.00
C7     C     0.37430   0.74340   0.72270   0.01267  Uiso   1.00
C8     C     0.37770   0.88350   0.84630   0.01267  Uiso   1.00
C9     C     0.89890   0.64910   0.60250   0.01267  Uiso   1.00
C10    C     0.89670   0.81980   0.60420   0.01267  Uiso   1.00
C11    C     0.61960   0.10930   0.90390   0.01267  Uiso   1.00
C12    C     0.69090   0.17550   0.85370   0.01267  Uiso   1.00
C13    C     0.82320   0.17120   0.88550   0.01267  Uiso   1.00
C14    C     0.88710   0.23720   0.84270   0.01267  Uiso   1.00
C15    C     0.82420   0.30730   0.76950   0.01267  Uiso   1.00
C16    C     0.69170   0.30970   0.73480   0.01267  Uiso   1.00
C17    C     0.62570   0.24340   0.77730   0.01267  Uiso   1.00
C18    C     0.62230   0.38350   0.65370   0.01267  Uiso   1.00
C19    C     0.10110   0.14910   0.89750   0.01267  Uiso   1.00
C20    C     0.10330   0.31980   0.89580   0.01267  Uiso   1.00
C21    C     0.61960   0.39070   0.40390   0.01267  Uiso   1.00
C22    C     0.69090   0.32450   0.35370   0.01267  Uiso   1.00
C23    C     0.82320   0.32880   0.38550   0.01267  Uiso   1.00
C24    C     0.88710   0.26280   0.34270   0.01267  Uiso   1.00
C25    C     0.82420   0.19270   0.26950   0.01267  Uiso   1.00
C26    C     0.69170   0.19030   0.23480   0.01267  Uiso   1.00
C27    C     0.62570   0.25660   0.27730   0.01267  Uiso   1.00
C28    C     0.62230   0.11650   0.15370   0.01267  Uiso   1.00
C29    C     0.10110   0.35090   0.39750   0.01267  Uiso   1.00
C30    C     0.10330   0.18020   0.39580   0.01267  Uiso   1.00
C31    C     0.38040   0.89070   0.09610   0.01267  Uiso   1.00
C32    C     0.30910   0.82450   0.14630   0.01267  Uiso   1.00
C33    C     0.17680   0.82880   0.11450   0.01267  Uiso   1.00
C34    C     0.11290   0.76280   0.15730   0.01267  Uiso   1.00
C35    C     0.17580   0.69270   0.23050   0.01267  Uiso   1.00
C36    C     0.30830   0.69030   0.26520   0.01267  Uiso   1.00
C37    C     0.37430   0.75660   0.22270   0.01267  Uiso   1.00
C38    C     0.37770   0.61650   0.34630   0.01267  Uiso   1.00
C39    C     0.89890   0.85090   0.10250   0.01267  Uiso   1.00
C40    C     0.89670   0.68020   0.10420   0.01267  Uiso   1.00
N1     N     0.97550   0.73530   0.62270   0.01267  Uiso   1.00
N2     N     0.77960   0.68080   0.57343   0.01267  Uiso   1.00
N3     N     0.77840   0.79030   0.57400   0.01267  Uiso   1.00
N4     N     0.02450   0.23530   0.87730   0.01267  Uiso   1.00
N5     N     0.22040   0.18080   0.92657   0.01267  Uiso   1.00
N6     N     0.22160   0.29030   0.92600   0.01267  Uiso   1.00
N7     N     0.02450   0.26470   0.37730   0.01267  Uiso   1.00
N8     N     0.22040   0.31920   0.42657   0.01267  Uiso   1.00
N9     N     0.22160   0.20970   0.42600   0.01267  Uiso   1.00
N10    N     0.97550   0.76470   0.12270   0.01267  Uiso   1.00
N11    N     0.77960   0.81920   0.07343   0.01267  Uiso   1.00
N12    N     0.77840   0.70970   0.07400   0.01267  Uiso   1.00
O1     O     0.48720   0.85640   0.90038   0.01267  Uiso   1.00
O2     O     0.32260   0.96760   0.85400   0.01267  Uiso   1.00
O3     O     0.49070   0.63960   0.60432   0.01267  Uiso   1.00
O4     O     0.32570   0.52960   0.55020   0.01267  Uiso   1.00
O5     O     0.51280   0.35640   0.59962   0.01267  Uiso   1.00
O6     O     0.67740   0.46760   0.64600   0.01267  Uiso   1.00
O7     O     0.50930   0.13960   0.89568   0.01267  Uiso   1.00
O8     O     0.67430   0.02960   0.94980   0.01267  Uiso   1.00
O9     O     0.51280   0.14360   0.09962   0.01267  Uiso   1.00
O10    O     0.67740   0.03240   0.14600   0.01267  Uiso   1.00
O11    O     0.50930   0.36040   0.39568   0.01267  Uiso   1.00
O12    O     0.67430   0.47040   0.44980   0.01267  Uiso   1.00
O13    O     0.48720   0.64360   0.40038   0.01267  Uiso   1.00
O14    O     0.32260   0.53240   0.35400   0.01267  Uiso   1.00
O15    O     0.49070   0.86040   0.10432   0.01267  Uiso   1.00
O16    O     0.32570   0.97040   0.05020   0.01267  Uiso   1.00
