data_UVUPUX_clean
_audit_creation_date              2014-07-02
_audit_creation_method            'Materials Studio'
_symmetry_space_group_name_H-M    'P1'
_symmetry_Int_Tables_number       1
_symmetry_cell_setting            triclinic
loop_
_symmetry_equiv_pos_as_xyz
  x,y,z
_cell_length_a                    7.5323
_cell_length_b                    14.4649
_cell_length_c                    23.9990
_cell_angle_alpha                 103.4980
_cell_angle_beta                  90.0000
_cell_angle_gamma                 105.0920
loop_
_atom_site_label
_atom_site_type_symbol
_atom_site_fract_x
_atom_site_fract_y
_atom_site_fract_z
_atom_site_U_iso_or_equiv
_atom_site_adp_type
_atom_site_occupancy
Zn1    Zn    0.18107   0.07209   0.00855   0.01267  Uiso   1.00
Zn2    Zn    0.10898   0.92790   0.49145   0.01267  Uiso   1.00
Zn3    Zn    0.81892   0.92790   0.99145   0.01267  Uiso   1.00
Zn4    Zn    0.89102   0.07210   0.50855   0.01267  Uiso   1.00
H1     H     0.09330   0.24560   0.17530   0.01267  Uiso   1.00
H2     H     0.01330   0.32840   0.26250   0.01267  Uiso   1.00
H3     H     0.48900   0.17200   0.22340   0.01267  Uiso   1.00
H4     H     0.56880   0.08900   0.13650   0.01267  Uiso   1.00
H5     H     0.39340   0.33060   0.34260   0.01267  Uiso   1.00
H6     H     0.20470   0.24100   0.39840   0.01267  Uiso   1.00
H7     H     0.55700   0.07480   0.39520   0.01267  Uiso   1.00
H8     H     0.74520   0.16500   0.34020   0.01267  Uiso   1.00
H9     H     0.58930   0.13540   0.03950   0.01267  Uiso   1.00
H10    H     0.84180   0.26500   0.03880   0.01267  Uiso   1.00
H11    H     0.50410   0.40360   0.98420   0.01267  Uiso   1.00
H12    H     0.26040   0.27240   0.98860   0.01267  Uiso   1.00
H13    H     0.84770   0.75440   0.32470   0.01267  Uiso   1.00
H14    H     0.68490   0.67160   0.23750   0.01267  Uiso   1.00
H15    H     0.31700   0.82800   0.27660   0.01267  Uiso   1.00
H16    H     0.47980   0.91100   0.36350   0.01267  Uiso   1.00
H17    H     0.06280   0.66940   0.15740   0.01267  Uiso   1.00
H18    H     0.96370   0.75900   0.10160   0.01267  Uiso   1.00
H19    H     0.48220   0.92520   0.10480   0.01267  Uiso   1.00
H20    H     0.58020   0.83500   0.15980   0.01267  Uiso   1.00
H21    H     0.45390   0.86460   0.46050   0.01267  Uiso   1.00
H22    H     0.57680   0.73500   0.46120   0.01267  Uiso   1.00
H23    H     0.10050   0.59640   0.51580   0.01267  Uiso   1.00
H24    H     0.98800   0.72760   0.51140   0.01267  Uiso   1.00
H25    H     0.90670   0.75440   0.82470   0.01267  Uiso   1.00
H26    H     0.98670   0.67160   0.73750   0.01267  Uiso   1.00
H27    H     0.51100   0.82800   0.77660   0.01267  Uiso   1.00
H28    H     0.43120   0.91100   0.86350   0.01267  Uiso   1.00
H29    H     0.60660   0.66940   0.65740   0.01267  Uiso   1.00
H30    H     0.79530   0.75900   0.60160   0.01267  Uiso   1.00
H31    H     0.44300   0.92520   0.60480   0.01267  Uiso   1.00
H32    H     0.25480   0.83500   0.65980   0.01267  Uiso   1.00
H33    H     0.41070   0.86460   0.96050   0.01267  Uiso   1.00
H34    H     0.15820   0.73500   0.96120   0.01267  Uiso   1.00
H35    H     0.49590   0.59640   0.01580   0.01267  Uiso   1.00
H36    H     0.73960   0.72760   0.01140   0.01267  Uiso   1.00
H37    H     0.15230   0.24560   0.67530   0.01267  Uiso   1.00
H38    H     0.31510   0.32840   0.76250   0.01267  Uiso   1.00
H39    H     0.68300   0.17200   0.72340   0.01267  Uiso   1.00
H40    H     0.52020   0.08900   0.63650   0.01267  Uiso   1.00
H41    H     0.93720   0.33060   0.84260   0.01267  Uiso   1.00
H42    H     0.03630   0.24100   0.89840   0.01267  Uiso   1.00
H43    H     0.51780   0.07480   0.89520   0.01267  Uiso   1.00
H44    H     0.41980   0.16500   0.84020   0.01267  Uiso   1.00
H45    H     0.54610   0.13540   0.53950   0.01267  Uiso   1.00
H46    H     0.42320   0.26500   0.53880   0.01267  Uiso   1.00
H47    H     0.89950   0.40360   0.48420   0.01267  Uiso   1.00
H48    H     0.01200   0.27240   0.48860   0.01267  Uiso   1.00
C1     C     0.84106   0.15752   0.14733   0.01267  Uiso   1.00
C2     C     0.97137   0.22994   0.18502   0.01267  Uiso   1.00
C3     C     0.92420   0.28000   0.23721   0.01267  Uiso   1.00
C4     C     0.74363   0.25666   0.25060   0.01267  Uiso   1.00
C5     C     0.61110   0.18640   0.21367   0.01267  Uiso   1.00
C6     C     0.65904   0.13668   0.16179   0.01267  Uiso   1.00
C7     C     0.89664   0.10108   0.09229   0.01267  Uiso   1.00
C8     C     0.58339   0.25418   0.33516   0.01267  Uiso   1.00
C9     C     0.42478   0.27836   0.35287   0.01267  Uiso   1.00
C10    C     0.31196   0.22452   0.38608   0.01267  Uiso   1.00
C11    C     0.35671   0.14602   0.40120   0.01267  Uiso   1.00
C12    C     0.52245   0.12550   0.38416   0.01267  Uiso   1.00
C13    C     0.63508   0.17916   0.35136   0.01267  Uiso   1.00
C14    C     0.23535   0.08590   0.43659   0.01267  Uiso   1.00
C15    C     0.57274   0.19008   0.02826   0.01267  Uiso   1.00
C16    C     0.72514   0.26728   0.02758   0.01267  Uiso   1.00
C17    C     0.70162   0.34784   0.00987   0.01267  Uiso   1.00
C18    C     0.52444   0.34968   0.99545   0.01267  Uiso   1.00
C19    C     0.37907   0.27054   0.99798   0.01267  Uiso   1.00
C20    C     0.86259   0.42958   0.00483   0.01267  Uiso   1.00
C21    C     0.68354   0.84248   0.35267   0.01267  Uiso   1.00
C22    C     0.74143   0.77006   0.31498   0.01267  Uiso   1.00
C23    C     0.64420   0.72000   0.26279   0.01267  Uiso   1.00
C24    C     0.48697   0.74334   0.24940   0.01267  Uiso   1.00
C25    C     0.42470   0.81360   0.28633   0.01267  Uiso   1.00
C26    C     0.52236   0.86332   0.33821   0.01267  Uiso   1.00
C27    C     0.79556   0.89892   0.40771   0.01267  Uiso   1.00
C28    C     0.32921   0.74582   0.16484   0.01267  Uiso   1.00
C29    C     0.14642   0.72164   0.14713   0.01267  Uiso   1.00
C30    C     0.08744   0.77548   0.11392   0.01267  Uiso   1.00
C31    C     0.21069   0.85398   0.09880   0.01267  Uiso   1.00
C32    C     0.39695   0.87450   0.11584   0.01267  Uiso   1.00
C33    C     0.45592   0.82084   0.14864   0.01267  Uiso   1.00
C34    C     0.14945   0.91410   0.06341   0.01267  Uiso   1.00
C35    C     0.38266   0.80992   0.47174   0.01267  Uiso   1.00
C36    C     0.45786   0.73272   0.47242   0.01267  Uiso   1.00
C37    C     0.35378   0.65216   0.49013   0.01267  Uiso   1.00
C38    C     0.17476   0.65032   0.50455   0.01267  Uiso   1.00
C39    C     0.10853   0.72946   0.50202   0.01267  Uiso   1.00
C40    C     0.43301   0.57042   0.49517   0.01267  Uiso   1.00
C41    C     0.15894   0.84248   0.85267   0.01267  Uiso   1.00
C42    C     0.02863   0.77006   0.81498   0.01267  Uiso   1.00
C43    C     0.07580   0.72000   0.76279   0.01267  Uiso   1.00
C44    C     0.25637   0.74334   0.74940   0.01267  Uiso   1.00
C45    C     0.38890   0.81360   0.78633   0.01267  Uiso   1.00
C46    C     0.34096   0.86332   0.83821   0.01267  Uiso   1.00
C47    C     0.10336   0.89892   0.90771   0.01267  Uiso   1.00
C48    C     0.41661   0.74582   0.66484   0.01267  Uiso   1.00
C49    C     0.57522   0.72164   0.64713   0.01267  Uiso   1.00
C50    C     0.68804   0.77548   0.61392   0.01267  Uiso   1.00
C51    C     0.64329   0.85398   0.59880   0.01267  Uiso   1.00
C52    C     0.47755   0.87450   0.61584   0.01267  Uiso   1.00
C53    C     0.36492   0.82084   0.64864   0.01267  Uiso   1.00
C54    C     0.76465   0.91410   0.56341   0.01267  Uiso   1.00
C55    C     0.42726   0.80992   0.97174   0.01267  Uiso   1.00
C56    C     0.27486   0.73272   0.97242   0.01267  Uiso   1.00
C57    C     0.29838   0.65216   0.99013   0.01267  Uiso   1.00
C58    C     0.47556   0.65032   0.00455   0.01267  Uiso   1.00
C59    C     0.62093   0.72946   0.00202   0.01267  Uiso   1.00
C60    C     0.13741   0.57042   0.99517   0.01267  Uiso   1.00
C61    C     0.31646   0.15752   0.64733   0.01267  Uiso   1.00
C62    C     0.25857   0.22994   0.68502   0.01267  Uiso   1.00
C63    C     0.35580   0.28000   0.73721   0.01267  Uiso   1.00
C64    C     0.51303   0.25666   0.75060   0.01267  Uiso   1.00
C65    C     0.57530   0.18640   0.71367   0.01267  Uiso   1.00
C66    C     0.47764   0.13668   0.66179   0.01267  Uiso   1.00
C67    C     0.20444   0.10108   0.59229   0.01267  Uiso   1.00
C68    C     0.67079   0.25418   0.83516   0.01267  Uiso   1.00
C69    C     0.85358   0.27836   0.85287   0.01267  Uiso   1.00
C70    C     0.91256   0.22452   0.88608   0.01267  Uiso   1.00
C71    C     0.78931   0.14602   0.90120   0.01267  Uiso   1.00
C72    C     0.60305   0.12550   0.88416   0.01267  Uiso   1.00
C73    C     0.54408   0.17916   0.85136   0.01267  Uiso   1.00
C74    C     0.85055   0.08590   0.93659   0.01267  Uiso   1.00
C75    C     0.61734   0.19008   0.52826   0.01267  Uiso   1.00
C76    C     0.54214   0.26728   0.52758   0.01267  Uiso   1.00
C77    C     0.64622   0.34784   0.50987   0.01267  Uiso   1.00
C78    C     0.82524   0.34968   0.49545   0.01267  Uiso   1.00
C79    C     0.89147   0.27054   0.49798   0.01267  Uiso   1.00
C80    C     0.56699   0.42958   0.50483   0.01267  Uiso   1.00
N1     N     0.40178   0.19096   0.01338   0.01267  Uiso   1.00
N2     N     0.02615   0.42850   0.02465   0.01267  Uiso   1.00
N3     N     0.17014   0.50148   0.01965   0.01267  Uiso   1.00
N4     N     0.21082   0.80904   0.48662   0.01267  Uiso   1.00
N5     N     0.59765   0.57150   0.47535   0.01267  Uiso   1.00
N6     N     0.66866   0.49852   0.48035   0.01267  Uiso   1.00
N7     N     0.59822   0.80904   0.98662   0.01267  Uiso   1.00
N8     N     0.97385   0.57150   0.97535   0.01267  Uiso   1.00
N9     N     0.82986   0.49852   0.98035   0.01267  Uiso   1.00
N10    N     0.78918   0.19096   0.51338   0.01267  Uiso   1.00
N11    N     0.40235   0.42850   0.52465   0.01267  Uiso   1.00
N12    N     0.33134   0.50148   0.51965   0.01267  Uiso   1.00
O1     O     0.77939   0.02658   0.06406   0.01267  Uiso   1.00
O2     O     0.05764   0.13288   0.07832   0.01267  Uiso   1.00
O3     O     0.10074   0.11608   0.45720   0.01267  Uiso   1.00
O4     O     0.27323   0.01026   0.44394   0.01267  Uiso   1.00
O5     O     0.69830   0.31060   0.30243   0.01267  Uiso   1.00
O6     O     0.75281   0.97342   0.43594   0.01267  Uiso   1.00
O7     O     0.92476   0.86712   0.42168   0.01267  Uiso   1.00
O8     O     0.98466   0.88392   0.04280   0.01267  Uiso   1.00
O9     O     0.26297   0.98974   0.05606   0.01267  Uiso   1.00
O10    O     0.38770   0.68940   0.19757   0.01267  Uiso   1.00
O11    O     0.22061   0.97342   0.93594   0.01267  Uiso   1.00
O12    O     0.94236   0.86712   0.92168   0.01267  Uiso   1.00
O13    O     0.89926   0.88392   0.54280   0.01267  Uiso   1.00
O14    O     0.72677   0.98974   0.55606   0.01267  Uiso   1.00
O15    O     0.30170   0.68940   0.69757   0.01267  Uiso   1.00
O16    O     0.24719   0.02658   0.56406   0.01267  Uiso   1.00
O17    O     0.07524   0.13288   0.57832   0.01267  Uiso   1.00
O18    O     0.01534   0.11608   0.95720   0.01267  Uiso   1.00
O19    O     0.73703   0.01026   0.94394   0.01267  Uiso   1.00
O20    O     0.61230   0.31060   0.80243   0.01267  Uiso   1.00
