data_UVUPOR_clean
_audit_creation_date              2014-07-02
_audit_creation_method            'Materials Studio'
_symmetry_space_group_name_H-M    'P1'
_symmetry_Int_Tables_number       1
_symmetry_cell_setting            triclinic
loop_
_symmetry_equiv_pos_as_xyz
  x,y,z
_cell_length_a                    15.2240
_cell_length_b                    15.2590
_cell_length_c                    18.0590
_cell_angle_alpha                 91.8400
_cell_angle_beta                  96.6900
_cell_angle_gamma                 98.2800
loop_
_atom_site_label
_atom_site_type_symbol
_atom_site_fract_x
_atom_site_fract_y
_atom_site_fract_z
_atom_site_U_iso_or_equiv
_atom_site_adp_type
_atom_site_occupancy
Zn1    Zn    0.01109   0.00553   0.08225   0.01267  Uiso   1.00
Zn2    Zn    0.98891   0.99447   0.91775   0.01267  Uiso   1.00
H1     H     0.01250   0.28820   0.10950   0.01267  Uiso   1.00
H2     H     0.01420   0.43860   0.11120   0.01267  Uiso   1.00
H3     H     0.98590   0.42720   0.88700   0.01267  Uiso   1.00
H4     H     0.98680   0.27820   0.88640   0.01267  Uiso   1.00
H5     H     0.31050   0.01800   0.11890   0.01267  Uiso   1.00
H6     H     0.45320   0.99900   0.11110   0.01267  Uiso   1.00
H7     H     0.41780   0.02420   0.89490   0.01267  Uiso   1.00
H8     H     0.27310   0.03410   0.90280   0.01267  Uiso   1.00
H9     H     0.02890   0.13650   0.21480   0.01267  Uiso   1.00
H10    H     0.02270   0.13670   0.34110   0.01267  Uiso   1.00
H11    H     0.97410   0.87180   0.32580   0.01267  Uiso   1.00
H12    H     0.97800   0.87890   0.19950   0.01267  Uiso   1.00
H13    H     0.98750   0.71180   0.89050   0.01267  Uiso   1.00
H14    H     0.98580   0.56140   0.88880   0.01267  Uiso   1.00
H15    H     0.01410   0.57280   0.11300   0.01267  Uiso   1.00
H16    H     0.01320   0.72180   0.11360   0.01267  Uiso   1.00
H17    H     0.68950   0.98200   0.88110   0.01267  Uiso   1.00
H18    H     0.54680   0.00100   0.88890   0.01267  Uiso   1.00
H19    H     0.58220   0.97580   0.10510   0.01267  Uiso   1.00
H20    H     0.72690   0.96590   0.09720   0.01267  Uiso   1.00
H21    H     0.97110   0.86350   0.78520   0.01267  Uiso   1.00
H22    H     0.97730   0.86330   0.65890   0.01267  Uiso   1.00
H23    H     0.02590   0.12820   0.67420   0.01267  Uiso   1.00
H24    H     0.02200   0.12110   0.80050   0.01267  Uiso   1.00
C1     C     0.99820   0.26670   0.99820   0.01267  Uiso   1.00
C2     C     0.00710   0.31630   0.06460   0.01267  Uiso   1.00
C3     C     0.00800   0.40680   0.06570   0.01267  Uiso   1.00
C4     C     0.00000   0.45180   0.99940   0.01267  Uiso   1.00
C5     C     0.99150   0.39980   0.93220   0.01267  Uiso   1.00
C6     C     0.99140   0.31030   0.93170   0.01267  Uiso   1.00
C7     C     0.99920   0.16840   0.99900   0.01267  Uiso   1.00
C8     C     0.27260   0.01810   0.00990   0.01267  Uiso   1.00
C9     C     0.33030   0.01430   0.07230   0.01267  Uiso   1.00
C10    C     0.41620   0.00510   0.06740   0.01267  Uiso   1.00
C11    C     0.45130   0.00440   0.00080   0.01267  Uiso   1.00
C12    C     0.39620   0.01850   0.94090   0.01267  Uiso   1.00
C13    C     0.30940   0.02470   0.94610   0.01267  Uiso   1.00
C14    C     0.17380   0.01830   0.01330   0.01267  Uiso   1.00
C15    C     0.01730   0.08270   0.23710   0.01267  Uiso   1.00
C16    C     0.01460   0.08310   0.31330   0.01267  Uiso   1.00
C17    C     0.00000   0.00490   0.34830   0.01267  Uiso   1.00
C18    C     0.98540   0.92640   0.30450   0.01267  Uiso   1.00
C19    C     0.98790   0.93160   0.22860   0.01267  Uiso   1.00
C20    C     0.00030   0.00190   0.42970   0.01267  Uiso   1.00
C21    C     0.00180   0.73330   0.00180   0.01267  Uiso   1.00
C22    C     0.99290   0.68370   0.93540   0.01267  Uiso   1.00
C23    C     0.99200   0.59320   0.93430   0.01267  Uiso   1.00
C24    C     0.00000   0.54820   0.00060   0.01267  Uiso   1.00
C25    C     0.00850   0.60020   0.06780   0.01267  Uiso   1.00
C26    C     0.00860   0.68970   0.06830   0.01267  Uiso   1.00
C27    C     0.00080   0.83160   0.00100   0.01267  Uiso   1.00
C28    C     0.72740   0.98190   0.99010   0.01267  Uiso   1.00
C29    C     0.66970   0.98570   0.92770   0.01267  Uiso   1.00
C30    C     0.58380   0.99490   0.93260   0.01267  Uiso   1.00
C31    C     0.54870   0.99560   0.99920   0.01267  Uiso   1.00
C32    C     0.60380   0.98150   0.05910   0.01267  Uiso   1.00
C33    C     0.69060   0.97530   0.05390   0.01267  Uiso   1.00
C34    C     0.82620   0.98170   0.98670   0.01267  Uiso   1.00
C35    C     0.98270   0.91730   0.76290   0.01267  Uiso   1.00
C36    C     0.98540   0.91690   0.68670   0.01267  Uiso   1.00
C37    C     0.00000   0.99510   0.65170   0.01267  Uiso   1.00
C38    C     0.01460   0.07360   0.69550   0.01267  Uiso   1.00
C39    C     0.01210   0.06840   0.77140   0.01267  Uiso   1.00
C40    C     0.99970   0.99810   0.57030   0.01267  Uiso   1.00
N1     N     0.00380   0.00760   0.19410   0.01267  Uiso   1.00
N2     N     0.01510   0.08020   0.46890   0.01267  Uiso   1.00
N3     N     0.98520   0.92320   0.45810   0.01267  Uiso   1.00
N4     N     0.99620   0.99240   0.80590   0.01267  Uiso   1.00
N5     N     0.98490   0.91980   0.53110   0.01267  Uiso   1.00
N6     N     0.01480   0.07680   0.54190   0.01267  Uiso   1.00
O1     O     0.01060   0.13510   0.06160   0.01267  Uiso   1.00
O2     O     0.98990   0.12690   0.93666   0.01267  Uiso   1.00
O3     O     0.14620   0.02130   0.07550   0.01267  Uiso   1.00
O4     O     0.12500   0.01420   0.95100   0.01267  Uiso   1.00
O5     O     0.98940   0.86490   0.93840   0.01267  Uiso   1.00
O6     O     0.01010   0.87310   0.06334   0.01267  Uiso   1.00
O7     O     0.85380   0.97870   0.92450   0.01267  Uiso   1.00
O8     O     0.87500   0.98580   0.04900   0.01267  Uiso   1.00
Zn3    Zn    0.77314   0.67275   0.75627   0.01267  Uiso   1.00
Zn4    Zn    0.75079   0.66257   0.59186   0.01267  Uiso   1.00
H25    H     0.45860   0.66200   0.55940   0.01267  Uiso   1.00
H26    H     0.30960   0.66380   0.56270   0.01267  Uiso   1.00
H27    H     0.34810   0.65350   0.78190   0.01267  Uiso   1.00
H28    H     0.48900   0.63000   0.77450   0.01267  Uiso   1.00
H29    H     0.06590   0.65290   0.79060   0.01267  Uiso   1.00
H30    H     0.21020   0.63880   0.78190   0.01267  Uiso   1.00
H31    H     0.18390   0.70090   0.57190   0.01267  Uiso   1.00
H32    H     0.03540   0.70760   0.57680   0.01267  Uiso   1.00
H33    H     0.81300   0.39520   0.77730   0.01267  Uiso   1.00
H34    H     0.81690   0.24530   0.77560   0.01267  Uiso   1.00
H35    H     0.69770   0.22030   0.56830   0.01267  Uiso   1.00
H36    H     0.70010   0.37000   0.56810   0.01267  Uiso   1.00
H37    H     0.75820   0.94590   0.56160   0.01267  Uiso   1.00
H38    H     0.75920   0.09600   0.56150   0.01267  Uiso   1.00
H39    H     0.77470   0.10720   0.78340   0.01267  Uiso   1.00
H40    H     0.77380   0.95750   0.78420   0.01267  Uiso   1.00
H41    H     0.75210   0.54550   0.87320   0.01267  Uiso   1.00
H42    H     0.75240   0.53890   0.99910   0.01267  Uiso   1.00
H43    H     0.79210   0.80530   0.01490   0.01267  Uiso   1.00
H44    H     0.78880   0.80280   0.88690   0.01267  Uiso   1.00
H45    H     0.79340   0.78870   0.47750   0.01267  Uiso   1.00
H46    H     0.80030   0.79620   0.35170   0.01267  Uiso   1.00
H47    H     0.73400   0.53410   0.33340   0.01267  Uiso   1.00
H48    H     0.72580   0.53510   0.45980   0.01267  Uiso   1.00
C41    C     0.49270   0.65150   0.66550   0.01267  Uiso   1.00
C42    C     0.43650   0.65870   0.60530   0.01267  Uiso   1.00
C43    C     0.34680   0.66160   0.60700   0.01267  Uiso   1.00
C44    C     0.31260   0.66120   0.67280   0.01267  Uiso   1.00
C45    C     0.36910   0.65260   0.73560   0.01267  Uiso   1.00
C46    C     0.45420   0.64290   0.73160   0.01267  Uiso   1.00
C47    C     0.59030   0.65190   0.66300   0.01267  Uiso   1.00
C48    C     0.03130   0.67880   0.68280   0.01267  Uiso   1.00
C49    C     0.08790   0.66040   0.74490   0.01267  Uiso   1.00
C50    C     0.17560   0.65330   0.73940   0.01267  Uiso   1.00
C51    C     0.21580   0.66570   0.67620   0.01267  Uiso   1.00
C52    C     0.16020   0.68850   0.61620   0.01267  Uiso   1.00
C53    C     0.07010   0.69360   0.61940   0.01267  Uiso   1.00
C54    C     0.93450   0.68020   0.68290   0.01267  Uiso   1.00
C55    C     0.75780   0.40010   0.67170   0.01267  Uiso   1.00
C56    C     0.79120   0.36070   0.73380   0.01267  Uiso   1.00
C57    C     0.79300   0.27010   0.73280   0.01267  Uiso   1.00
C58    C     0.76070   0.21640   0.67120   0.01267  Uiso   1.00
C59    C     0.72360   0.25530   0.61050   0.01267  Uiso   1.00
C60    C     0.72390   0.34540   0.61100   0.01267  Uiso   1.00
C61    C     0.75690   0.49780   0.66970   0.01267  Uiso   1.00
C62    C     0.76570   0.93460   0.67280   0.01267  Uiso   1.00
C63    C     0.76120   0.97800   0.60670   0.01267  Uiso   1.00
C64    C     0.76100   0.06830   0.60670   0.01267  Uiso   1.00
C65    C     0.76330   0.11910   0.67210   0.01267  Uiso   1.00
C66    C     0.77020   0.07490   0.73830   0.01267  Uiso   1.00
C67    C     0.77040   0.98500   0.73890   0.01267  Uiso   1.00
C68    C     0.76610   0.83690   0.67390   0.01267  Uiso   1.00
C69    C     0.75990   0.59810   0.90210   0.01267  Uiso   1.00
C70    C     0.76020   0.59370   0.97770   0.01267  Uiso   1.00
C71    C     0.77210   0.67100   0.02200   0.01267  Uiso   1.00
C72    C     0.78350   0.75160   0.98720   0.01267  Uiso   1.00
C73    C     0.78170   0.74940   0.91040   0.01267  Uiso   1.00
C74    C     0.77150   0.66900   0.10510   0.01267  Uiso   1.00
C75    C     0.76870   0.66640   0.24610   0.01267  Uiso   1.00
C76    C     0.77920   0.73670   0.44750   0.01267  Uiso   1.00
C77    C     0.78400   0.74200   0.37220   0.01267  Uiso   1.00
C78    C     0.76390   0.66440   0.32730   0.01267  Uiso   1.00
C79    C     0.74450   0.58770   0.36120   0.01267  Uiso   1.00
C80    C     0.74020   0.58860   0.43760   0.01267  Uiso   1.00
N7     N     0.77010   0.67380   0.86850   0.01267  Uiso   1.00
N8     N     0.76290   0.58920   0.13560   0.01267  Uiso   1.00
N9     N     0.75970   0.58850   0.20770   0.01267  Uiso   1.00
N10    N     0.78260   0.74440   0.21590   0.01267  Uiso   1.00
N11    N     0.78470   0.74730   0.14330   0.01267  Uiso   1.00
N12    N     0.75570   0.66250   0.47950   0.01267  Uiso   1.00
O9     O     0.63800   0.65090   0.72510   0.01267  Uiso   1.00
O10    O     0.61900   0.65430   0.60100   0.01267  Uiso   1.00
O11    O     0.90770   0.68830   0.74620   0.01267  Uiso   1.00
O12    O     0.88530   0.67250   0.62220   0.01267  Uiso   1.00
O13    O     0.77300   0.54000   0.73217   0.01267  Uiso   1.00
O14    O     0.74260   0.53050   0.60861   0.01267  Uiso   1.00
O15    O     0.77060   0.80160   0.73554   0.01267  Uiso   1.00
O16    O     0.76190   0.79570   0.61154   0.01267  Uiso   1.00
Zn5    Zn    0.22686   0.32725   0.24373   0.01267  Uiso   1.00
Zn6    Zn    0.24921   0.33743   0.40814   0.01267  Uiso   1.00
H49    H     0.54140   0.33800   0.44060   0.01267  Uiso   1.00
H50    H     0.69040   0.33620   0.43730   0.01267  Uiso   1.00
H51    H     0.65190   0.34650   0.21810   0.01267  Uiso   1.00
H52    H     0.51100   0.37000   0.22550   0.01267  Uiso   1.00
H53    H     0.93410   0.34710   0.20940   0.01267  Uiso   1.00
H54    H     0.78980   0.36120   0.21810   0.01267  Uiso   1.00
H55    H     0.81610   0.29910   0.42810   0.01267  Uiso   1.00
H56    H     0.96460   0.29240   0.42320   0.01267  Uiso   1.00
H57    H     0.18700   0.60480   0.22270   0.01267  Uiso   1.00
H58    H     0.18310   0.75470   0.22440   0.01267  Uiso   1.00
H59    H     0.30230   0.77970   0.43170   0.01267  Uiso   1.00
H60    H     0.29990   0.63000   0.43190   0.01267  Uiso   1.00
H61    H     0.24180   0.05410   0.43840   0.01267  Uiso   1.00
H62    H     0.24080   0.90400   0.43850   0.01267  Uiso   1.00
H63    H     0.22530   0.89280   0.21660   0.01267  Uiso   1.00
H64    H     0.22620   0.04250   0.21580   0.01267  Uiso   1.00
H65    H     0.24790   0.45450   0.12680   0.01267  Uiso   1.00
H66    H     0.24760   0.46110   0.00090   0.01267  Uiso   1.00
H67    H     0.20790   0.19470   0.98510   0.01267  Uiso   1.00
H68    H     0.21120   0.19720   0.11310   0.01267  Uiso   1.00
H69    H     0.20660   0.21130   0.52250   0.01267  Uiso   1.00
H70    H     0.19970   0.20380   0.64830   0.01267  Uiso   1.00
H71    H     0.26600   0.46590   0.66660   0.01267  Uiso   1.00
H72    H     0.27420   0.46490   0.54020   0.01267  Uiso   1.00
C81    C     0.50730   0.34850   0.33450   0.01267  Uiso   1.00
C82    C     0.56350   0.34130   0.39470   0.01267  Uiso   1.00
C83    C     0.65320   0.33840   0.39300   0.01267  Uiso   1.00
C84    C     0.68740   0.33880   0.32720   0.01267  Uiso   1.00
C85    C     0.63090   0.34740   0.26440   0.01267  Uiso   1.00
C86    C     0.54580   0.35710   0.26840   0.01267  Uiso   1.00
C87    C     0.40970   0.34810   0.33700   0.01267  Uiso   1.00
C88    C     0.96870   0.32120   0.31720   0.01267  Uiso   1.00
C89    C     0.91210   0.33960   0.25510   0.01267  Uiso   1.00
C90    C     0.82440   0.34670   0.26060   0.01267  Uiso   1.00
C91    C     0.78420   0.33430   0.32380   0.01267  Uiso   1.00
C92    C     0.83980   0.31150   0.38380   0.01267  Uiso   1.00
C93    C     0.92990   0.30640   0.38060   0.01267  Uiso   1.00
C94    C     0.06550   0.31980   0.31710   0.01267  Uiso   1.00
C95    C     0.24220   0.59990   0.32830   0.01267  Uiso   1.00
C96    C     0.20880   0.63930   0.26620   0.01267  Uiso   1.00
C97    C     0.20700   0.72990   0.26720   0.01267  Uiso   1.00
C98    C     0.23930   0.78360   0.32880   0.01267  Uiso   1.00
C99    C     0.27640   0.74470   0.38950   0.01267  Uiso   1.00
C100   C     0.27610   0.65460   0.38900   0.01267  Uiso   1.00
C101   C     0.24310   0.50220   0.33030   0.01267  Uiso   1.00
C102   C     0.23430   0.06540   0.32720   0.01267  Uiso   1.00
C103   C     0.23880   0.02200   0.39330   0.01267  Uiso   1.00
C104   C     0.23900   0.93170   0.39330   0.01267  Uiso   1.00
C105   C     0.23670   0.88090   0.32790   0.01267  Uiso   1.00
C106   C     0.22980   0.92510   0.26170   0.01267  Uiso   1.00
C107   C     0.22960   0.01500   0.26110   0.01267  Uiso   1.00
C108   C     0.23390   0.16310   0.32610   0.01267  Uiso   1.00
C109   C     0.24010   0.40190   0.09790   0.01267  Uiso   1.00
C110   C     0.23980   0.40630   0.02230   0.01267  Uiso   1.00
C111   C     0.22790   0.32900   0.97800   0.01267  Uiso   1.00
C112   C     0.21650   0.24840   0.01280   0.01267  Uiso   1.00
C113   C     0.21830   0.25060   0.08960   0.01267  Uiso   1.00
C114   C     0.22850   0.33100   0.89490   0.01267  Uiso   1.00
C115   C     0.23130   0.33360   0.75390   0.01267  Uiso   1.00
C116   C     0.22080   0.26330   0.55250   0.01267  Uiso   1.00
C117   C     0.21600   0.25800   0.62780   0.01267  Uiso   1.00
C118   C     0.23610   0.33560   0.67270   0.01267  Uiso   1.00
C119   C     0.25550   0.41230   0.63880   0.01267  Uiso   1.00
C120   C     0.25980   0.41140   0.56240   0.01267  Uiso   1.00
N13    N     0.22990   0.32620   0.13150   0.01267  Uiso   1.00
N14    N     0.23710   0.41080   0.86440   0.01267  Uiso   1.00
N15    N     0.24030   0.41150   0.79230   0.01267  Uiso   1.00
N16    N     0.21740   0.25560   0.78410   0.01267  Uiso   1.00
N17    N     0.21530   0.25270   0.85670   0.01267  Uiso   1.00
N18    N     0.24430   0.33750   0.52050   0.01267  Uiso   1.00
O17    O     0.36200   0.34910   0.27490   0.01267  Uiso   1.00
O18    O     0.38100   0.34570   0.39900   0.01267  Uiso   1.00
O19    O     0.09230   0.31170   0.25380   0.01267  Uiso   1.00
O20    O     0.11470   0.32750   0.37780   0.01267  Uiso   1.00
O21    O     0.22700   0.46000   0.26783   0.01267  Uiso   1.00
O22    O     0.25740   0.46950   0.39139   0.01267  Uiso   1.00
O23    O     0.22940   0.19840   0.26446   0.01267  Uiso   1.00
O24    O     0.23810   0.20430   0.38846   0.01267  Uiso   1.00
