data_UYOXUC_charged
_audit_creation_date              2014-07-02
_audit_creation_method            'Materials Studio'
_symmetry_space_group_name_H-M    'P1'
_symmetry_Int_Tables_number       1
_symmetry_cell_setting            triclinic
loop_
_symmetry_equiv_pos_as_xyz
  x,y,z
_cell_length_a                    18.0907
_cell_length_b                    18.0907
_cell_length_c                    18.0907
_cell_angle_alpha                 87.9661
_cell_angle_beta                  87.9661
_cell_angle_gamma                 87.9661
loop_
_atom_site_label
_atom_site_type_symbol
_atom_site_fract_x
_atom_site_fract_y
_atom_site_fract_z
_atom_site_U_iso_or_equiv
_atom_site_adp_type
_atom_site_occupancy
Cd1    Cd    0.11745   0.38255   0.75000   0.01267  Uiso   1.00
Cd2    Cd    0.75000   0.11745   0.38255   0.01267  Uiso   1.00
Cd3    Cd    0.38255   0.75000   0.11745   0.01267  Uiso   1.00
Cd4    Cd    0.88255   0.61745   0.25000   0.01267  Uiso   1.00
Cd5    Cd    0.25000   0.88255   0.61745   0.01267  Uiso   1.00
Cd6    Cd    0.61745   0.25000   0.88255   0.01267  Uiso   1.00
H1     H     0.38930   0.14500   0.00070   0.01267  Uiso   1.00
H2     H     0.18500   0.22440   0.96000   0.01267  Uiso   1.00
H3     H     0.35770   0.30020   0.84080   0.01267  Uiso   1.00
H4     H     0.28550   0.10770   0.06020   0.01267  Uiso   1.00
H5     H     0.00070   0.38930   0.14500   0.01267  Uiso   1.00
H6     H     0.96000   0.18500   0.22440   0.01267  Uiso   1.00
H7     H     0.84080   0.35770   0.30020   0.01267  Uiso   1.00
H8     H     0.06020   0.28550   0.10770   0.01267  Uiso   1.00
H9     H     0.14500   0.00070   0.38930   0.01267  Uiso   1.00
H10    H     0.22440   0.96000   0.18500   0.01267  Uiso   1.00
H11    H     0.30020   0.84080   0.35770   0.01267  Uiso   1.00
H12    H     0.10770   0.06020   0.28550   0.01267  Uiso   1.00
H13    H     0.35500   0.11070   0.49930   0.01267  Uiso   1.00
H14    H     0.27560   0.31500   0.54000   0.01267  Uiso   1.00
H15    H     0.19980   0.14230   0.65920   0.01267  Uiso   1.00
H16    H     0.39230   0.21450   0.43980   0.01267  Uiso   1.00
H17    H     0.11070   0.49930   0.35500   0.01267  Uiso   1.00
H18    H     0.31500   0.54000   0.27560   0.01267  Uiso   1.00
H19    H     0.14230   0.65920   0.19980   0.01267  Uiso   1.00
H20    H     0.21450   0.43980   0.39230   0.01267  Uiso   1.00
H21    H     0.49930   0.35500   0.11070   0.01267  Uiso   1.00
H22    H     0.54000   0.27560   0.31500   0.01267  Uiso   1.00
H23    H     0.65920   0.19980   0.14230   0.01267  Uiso   1.00
H24    H     0.43980   0.39230   0.21450   0.01267  Uiso   1.00
H25    H     0.61070   0.85500   0.99930   0.01267  Uiso   1.00
H26    H     0.81500   0.77560   0.04000   0.01267  Uiso   1.00
H27    H     0.64230   0.69980   0.15920   0.01267  Uiso   1.00
H28    H     0.71450   0.89230   0.93980   0.01267  Uiso   1.00
H29    H     0.99930   0.61070   0.85500   0.01267  Uiso   1.00
H30    H     0.04000   0.81500   0.77560   0.01267  Uiso   1.00
H31    H     0.15920   0.64230   0.69980   0.01267  Uiso   1.00
H32    H     0.93980   0.71450   0.89230   0.01267  Uiso   1.00
H33    H     0.85500   0.99930   0.61070   0.01267  Uiso   1.00
H34    H     0.77560   0.04000   0.81500   0.01267  Uiso   1.00
H35    H     0.69980   0.15920   0.64230   0.01267  Uiso   1.00
H36    H     0.89230   0.93980   0.71450   0.01267  Uiso   1.00
H37    H     0.64500   0.88930   0.50070   0.01267  Uiso   1.00
H38    H     0.72440   0.68500   0.46000   0.01267  Uiso   1.00
H39    H     0.80020   0.85770   0.34080   0.01267  Uiso   1.00
H40    H     0.60770   0.78550   0.56020   0.01267  Uiso   1.00
H41    H     0.88930   0.50070   0.64500   0.01267  Uiso   1.00
H42    H     0.68500   0.46000   0.72440   0.01267  Uiso   1.00
H43    H     0.85770   0.34080   0.80020   0.01267  Uiso   1.00
H44    H     0.78550   0.56020   0.60770   0.01267  Uiso   1.00
H45    H     0.50070   0.64500   0.88930   0.01267  Uiso   1.00
H46    H     0.46000   0.72440   0.68500   0.01267  Uiso   1.00
H47    H     0.34080   0.80020   0.85770   0.01267  Uiso   1.00
H48    H     0.56020   0.60770   0.78550   0.01267  Uiso   1.00
C1     C     0.19980   0.13972   0.09777   0.01267  Uiso   1.00
C2     C     0.28272   0.17814   0.99101   0.01267  Uiso   1.00
C3     C     0.35769   0.17649   0.97394   0.01267  Uiso   1.00
C4     C     0.21252   0.31944   0.84941   0.01267  Uiso   1.00
C5     C     0.38648   0.22174   0.91694   0.01267  Uiso   1.00
C6     C     0.46903   0.22086   0.90025   0.01267  Uiso   1.00
C7     C     0.23581   0.22424   0.94991   0.01267  Uiso   1.00
C8     C     0.26404   0.26956   0.89445   0.01267  Uiso   1.00
C9     C     0.33900   0.26878   0.87814   0.01267  Uiso   1.00
C10    C     0.09777   0.19980   0.13972   0.01267  Uiso   1.00
C11    C     0.99101   0.28272   0.17814   0.01267  Uiso   1.00
C12    C     0.97394   0.35769   0.17649   0.01267  Uiso   1.00
C13    C     0.84941   0.21252   0.31944   0.01267  Uiso   1.00
C14    C     0.91694   0.38648   0.22174   0.01267  Uiso   1.00
C15    C     0.90025   0.46903   0.22086   0.01267  Uiso   1.00
C16    C     0.94991   0.23581   0.22424   0.01267  Uiso   1.00
C17    C     0.89445   0.26404   0.26956   0.01267  Uiso   1.00
C18    C     0.87814   0.33900   0.26878   0.01267  Uiso   1.00
C19    C     0.13972   0.09777   0.19980   0.01267  Uiso   1.00
C20    C     0.17814   0.99101   0.28272   0.01267  Uiso   1.00
C21    C     0.17649   0.97394   0.35769   0.01267  Uiso   1.00
C22    C     0.31944   0.84941   0.21252   0.01267  Uiso   1.00
C23    C     0.22174   0.91694   0.38648   0.01267  Uiso   1.00
C24    C     0.22086   0.90025   0.46903   0.01267  Uiso   1.00
C25    C     0.22424   0.94991   0.23581   0.01267  Uiso   1.00
C26    C     0.26956   0.89445   0.26404   0.01267  Uiso   1.00
C27    C     0.26878   0.87814   0.33900   0.01267  Uiso   1.00
C28    C     0.36028   0.30020   0.40223   0.01267  Uiso   1.00
C29    C     0.32186   0.21728   0.50899   0.01267  Uiso   1.00
C30    C     0.32351   0.14231   0.52606   0.01267  Uiso   1.00
C31    C     0.18056   0.28748   0.65059   0.01267  Uiso   1.00
C32    C     0.27826   0.11352   0.58306   0.01267  Uiso   1.00
C33    C     0.27914   0.03097   0.59975   0.01267  Uiso   1.00
C34    C     0.27576   0.26419   0.55009   0.01267  Uiso   1.00
C35    C     0.23044   0.23596   0.60555   0.01267  Uiso   1.00
C36    C     0.23122   0.16100   0.62186   0.01267  Uiso   1.00
C37    C     0.30020   0.40223   0.36028   0.01267  Uiso   1.00
C38    C     0.21728   0.50899   0.32186   0.01267  Uiso   1.00
C39    C     0.14231   0.52606   0.32351   0.01267  Uiso   1.00
C40    C     0.28748   0.65059   0.18056   0.01267  Uiso   1.00
C41    C     0.11352   0.58306   0.27826   0.01267  Uiso   1.00
C42    C     0.03097   0.59975   0.27914   0.01267  Uiso   1.00
C43    C     0.26419   0.55009   0.27576   0.01267  Uiso   1.00
C44    C     0.23596   0.60555   0.23044   0.01267  Uiso   1.00
C45    C     0.16100   0.62186   0.23122   0.01267  Uiso   1.00
C46    C     0.40223   0.36028   0.30020   0.01267  Uiso   1.00
C47    C     0.50899   0.32186   0.21728   0.01267  Uiso   1.00
C48    C     0.52606   0.32351   0.14231   0.01267  Uiso   1.00
C49    C     0.65059   0.18056   0.28748   0.01267  Uiso   1.00
C50    C     0.58306   0.27826   0.11352   0.01267  Uiso   1.00
C51    C     0.59975   0.27914   0.03097   0.01267  Uiso   1.00
C52    C     0.55009   0.27576   0.26419   0.01267  Uiso   1.00
C53    C     0.60555   0.23044   0.23596   0.01267  Uiso   1.00
C54    C     0.62186   0.23122   0.16100   0.01267  Uiso   1.00
C55    C     0.80020   0.86028   0.90223   0.01267  Uiso   1.00
C56    C     0.71728   0.82186   0.00899   0.01267  Uiso   1.00
C57    C     0.64231   0.82351   0.02606   0.01267  Uiso   1.00
C58    C     0.78748   0.68056   0.15059   0.01267  Uiso   1.00
C59    C     0.61352   0.77826   0.08306   0.01267  Uiso   1.00
C60    C     0.53097   0.77914   0.09975   0.01267  Uiso   1.00
C61    C     0.76419   0.77576   0.05009   0.01267  Uiso   1.00
C62    C     0.73596   0.73044   0.10555   0.01267  Uiso   1.00
C63    C     0.66100   0.73122   0.12186   0.01267  Uiso   1.00
C64    C     0.90223   0.80020   0.86028   0.01267  Uiso   1.00
C65    C     0.00899   0.71728   0.82186   0.01267  Uiso   1.00
C66    C     0.02606   0.64231   0.82351   0.01267  Uiso   1.00
C67    C     0.15059   0.78748   0.68056   0.01267  Uiso   1.00
C68    C     0.08306   0.61352   0.77826   0.01267  Uiso   1.00
C69    C     0.09975   0.53097   0.77914   0.01267  Uiso   1.00
C70    C     0.05009   0.76419   0.77576   0.01267  Uiso   1.00
C71    C     0.10555   0.73596   0.73044   0.01267  Uiso   1.00
C72    C     0.12186   0.66100   0.73122   0.01267  Uiso   1.00
C73    C     0.86028   0.90223   0.80020   0.01267  Uiso   1.00
C74    C     0.82186   0.00899   0.71728   0.01267  Uiso   1.00
C75    C     0.82351   0.02606   0.64231   0.01267  Uiso   1.00
C76    C     0.68056   0.15059   0.78748   0.01267  Uiso   1.00
C77    C     0.77826   0.08306   0.61352   0.01267  Uiso   1.00
C78    C     0.77914   0.09975   0.53097   0.01267  Uiso   1.00
C79    C     0.77576   0.05009   0.76419   0.01267  Uiso   1.00
C80    C     0.73044   0.10555   0.73596   0.01267  Uiso   1.00
C81    C     0.73122   0.12186   0.66100   0.01267  Uiso   1.00
C82    C     0.63972   0.69980   0.59777   0.01267  Uiso   1.00
C83    C     0.67814   0.78272   0.49101   0.01267  Uiso   1.00
C84    C     0.67649   0.85769   0.47394   0.01267  Uiso   1.00
C85    C     0.81944   0.71252   0.34941   0.01267  Uiso   1.00
C86    C     0.72174   0.88648   0.41694   0.01267  Uiso   1.00
C87    C     0.72086   0.96903   0.40025   0.01267  Uiso   1.00
C88    C     0.72424   0.73581   0.44991   0.01267  Uiso   1.00
C89    C     0.76956   0.76404   0.39445   0.01267  Uiso   1.00
C90    C     0.76878   0.83900   0.37814   0.01267  Uiso   1.00
C91    C     0.69980   0.59777   0.63972   0.01267  Uiso   1.00
C92    C     0.78272   0.49101   0.67814   0.01267  Uiso   1.00
C93    C     0.85769   0.47394   0.67649   0.01267  Uiso   1.00
C94    C     0.71252   0.34941   0.81944   0.01267  Uiso   1.00
C95    C     0.88648   0.41694   0.72174   0.01267  Uiso   1.00
C96    C     0.96903   0.40025   0.72086   0.01267  Uiso   1.00
C97    C     0.73581   0.44991   0.72424   0.01267  Uiso   1.00
C98    C     0.76404   0.39445   0.76956   0.01267  Uiso   1.00
C99    C     0.83900   0.37814   0.76878   0.01267  Uiso   1.00
C100   C     0.59777   0.63972   0.69980   0.01267  Uiso   1.00
C101   C     0.49101   0.67814   0.78272   0.01267  Uiso   1.00
C102   C     0.47394   0.67649   0.85769   0.01267  Uiso   1.00
C103   C     0.34941   0.81944   0.71252   0.01267  Uiso   1.00
C104   C     0.41694   0.72174   0.88648   0.01267  Uiso   1.00
C105   C     0.40025   0.72086   0.96903   0.01267  Uiso   1.00
C106   C     0.44991   0.72424   0.73581   0.01267  Uiso   1.00
C107   C     0.39445   0.76956   0.76404   0.01267  Uiso   1.00
C108   C     0.37814   0.76878   0.83900   0.01267  Uiso   1.00
N1     N     0.15263   0.19674   0.08768   0.01267  Uiso   1.00
N2     N     0.25862   0.13101   0.04991   0.01267  Uiso   1.00
N3     N     0.08768   0.15263   0.19674   0.01267  Uiso   1.00
N4     N     0.04991   0.25862   0.13101   0.01267  Uiso   1.00
N5     N     0.19674   0.08768   0.15263   0.01267  Uiso   1.00
N6     N     0.13101   0.04991   0.25862   0.01267  Uiso   1.00
N7     N     0.30326   0.34737   0.41232   0.01267  Uiso   1.00
N8     N     0.36899   0.24138   0.45009   0.01267  Uiso   1.00
N9     N     0.34737   0.41232   0.30326   0.01267  Uiso   1.00
N10    N     0.24138   0.45009   0.36899   0.01267  Uiso   1.00
N11    N     0.41232   0.30326   0.34737   0.01267  Uiso   1.00
N12    N     0.45009   0.36899   0.24138   0.01267  Uiso   1.00
N13    N     0.84737   0.80326   0.91232   0.01267  Uiso   1.00
N14    N     0.74138   0.86899   0.95009   0.01267  Uiso   1.00
N15    N     0.91232   0.84737   0.80326   0.01267  Uiso   1.00
N16    N     0.95009   0.74138   0.86899   0.01267  Uiso   1.00
N17    N     0.80326   0.91232   0.84737   0.01267  Uiso   1.00
N18    N     0.86899   0.95009   0.74138   0.01267  Uiso   1.00
N19    N     0.69674   0.65263   0.58768   0.01267  Uiso   1.00
N20    N     0.63101   0.75862   0.54991   0.01267  Uiso   1.00
N21    N     0.65263   0.58768   0.69674   0.01267  Uiso   1.00
N22    N     0.75862   0.54991   0.63101   0.01267  Uiso   1.00
N23    N     0.58768   0.69674   0.65263   0.01267  Uiso   1.00
N24    N     0.54991   0.63101   0.75862   0.01267  Uiso   1.00
O1     O     0.14371   0.31632   0.86416   0.01267  Uiso   1.00
O2     O     0.49398   0.27224   0.85848   0.01267  Uiso   1.00
O3     O     0.23846   0.35917   0.79904   0.01267  Uiso   1.00
O4     O     0.50844   0.17098   0.92782   0.01267  Uiso   1.00
O5     O     0.86416   0.14371   0.31632   0.01267  Uiso   1.00
O6     O     0.85848   0.49398   0.27224   0.01267  Uiso   1.00
O7     O     0.79904   0.23846   0.35917   0.01267  Uiso   1.00
O8     O     0.92782   0.50844   0.17098   0.01267  Uiso   1.00
O9     O     0.31632   0.86416   0.14371   0.01267  Uiso   1.00
O10    O     0.27224   0.85848   0.49398   0.01267  Uiso   1.00
O11    O     0.35917   0.79904   0.23846   0.01267  Uiso   1.00
O12    O     0.17098   0.92782   0.50844   0.01267  Uiso   1.00
O13    O     0.18368   0.35629   0.63584   0.01267  Uiso   1.00
O14    O     0.22776   0.00602   0.64152   0.01267  Uiso   1.00
O15    O     0.14083   0.26154   0.70096   0.01267  Uiso   1.00
O16    O     0.32902   0.99156   0.57218   0.01267  Uiso   1.00
O17    O     0.35629   0.63584   0.18368   0.01267  Uiso   1.00
O18    O     0.00602   0.64152   0.22776   0.01267  Uiso   1.00
O19    O     0.26154   0.70096   0.14083   0.01267  Uiso   1.00
O20    O     0.99156   0.57218   0.32902   0.01267  Uiso   1.00
O21    O     0.63584   0.18368   0.35629   0.01267  Uiso   1.00
O22    O     0.64152   0.22776   0.00602   0.01267  Uiso   1.00
O23    O     0.70096   0.14083   0.26154   0.01267  Uiso   1.00
O24    O     0.57218   0.32902   0.99156   0.01267  Uiso   1.00
O25    O     0.85629   0.68368   0.13584   0.01267  Uiso   1.00
O26    O     0.50602   0.72776   0.14152   0.01267  Uiso   1.00
O27    O     0.76154   0.64083   0.20096   0.01267  Uiso   1.00
O28    O     0.49156   0.82902   0.07218   0.01267  Uiso   1.00
O29    O     0.13584   0.85629   0.68368   0.01267  Uiso   1.00
O30    O     0.14152   0.50602   0.72776   0.01267  Uiso   1.00
O31    O     0.20096   0.76154   0.64083   0.01267  Uiso   1.00
O32    O     0.07218   0.49156   0.82902   0.01267  Uiso   1.00
O33    O     0.68368   0.13584   0.85629   0.01267  Uiso   1.00
O34    O     0.72776   0.14152   0.50602   0.01267  Uiso   1.00
O35    O     0.64083   0.20096   0.76154   0.01267  Uiso   1.00
O36    O     0.82902   0.07218   0.49156   0.01267  Uiso   1.00
O37    O     0.81632   0.64371   0.36416   0.01267  Uiso   1.00
O38    O     0.77224   0.99398   0.35848   0.01267  Uiso   1.00
O39    O     0.85917   0.73846   0.29904   0.01267  Uiso   1.00
O40    O     0.67098   0.00844   0.42782   0.01267  Uiso   1.00
O41    O     0.64371   0.36416   0.81632   0.01267  Uiso   1.00
O42    O     0.99398   0.35848   0.77224   0.01267  Uiso   1.00
O43    O     0.73846   0.29904   0.85917   0.01267  Uiso   1.00
O44    O     0.00844   0.42782   0.67098   0.01267  Uiso   1.00
O45    O     0.36416   0.81632   0.64371   0.01267  Uiso   1.00
O46    O     0.35848   0.77224   0.99398   0.01267  Uiso   1.00
O47    O     0.29904   0.85917   0.73846   0.01267  Uiso   1.00
O48    O     0.42782   0.67098   0.00844   0.01267  Uiso   1.00
