data_VACFOV01_clean
_audit_creation_date              2014-07-02
_audit_creation_method            'Materials Studio'
_symmetry_space_group_name_H-M    'P1'
_symmetry_Int_Tables_number       1
_symmetry_cell_setting            triclinic
loop_
_symmetry_equiv_pos_as_xyz
  x,y,z
_cell_length_a                    12.1780
_cell_length_b                    14.6820
_cell_length_c                    14.6820
_cell_angle_alpha                 120.0000
_cell_angle_beta                  90.0000
_cell_angle_gamma                 90.0000
loop_
_atom_site_label
_atom_site_type_symbol
_atom_site_fract_x
_atom_site_fract_y
_atom_site_fract_z
_atom_site_U_iso_or_equiv
_atom_site_adp_type
_atom_site_occupancy
In1    In    0.16667   0.50000   0.00000   0.01267  Uiso   1.00
In2    In    0.50000   0.50000   0.50000   0.01267  Uiso   1.00
In3    In    0.83333   0.00000   0.50000   0.01267  Uiso   1.00
H1     H     0.90940   0.65510   0.87450   0.01267  Uiso   1.00
H2     H     0.90640   0.33860   0.71870   0.01267  Uiso   1.00
H3     H     0.24273   0.21940   0.34490   0.01267  Uiso   1.00
H4     H     0.23973   0.38010   0.66140   0.01267  Uiso   1.00
H5     H     0.57607   0.12550   0.78060   0.01267  Uiso   1.00
H6     H     0.57307   0.28130   0.61990   0.01267  Uiso   1.00
H7     H     0.90940   0.34490   0.12550   0.01267  Uiso   1.00
H8     H     0.90640   0.66140   0.28130   0.01267  Uiso   1.00
H9     H     0.24273   0.78060   0.65510   0.01267  Uiso   1.00
H10    H     0.23973   0.61990   0.33860   0.01267  Uiso   1.00
H11    H     0.57607   0.87450   0.21940   0.01267  Uiso   1.00
H12    H     0.57307   0.71870   0.38010   0.01267  Uiso   1.00
H13    H     0.42393   0.78060   0.12550   0.01267  Uiso   1.00
H14    H     0.42693   0.61990   0.28130   0.01267  Uiso   1.00
H15    H     0.09060   0.87450   0.65510   0.01267  Uiso   1.00
H16    H     0.09360   0.71870   0.33860   0.01267  Uiso   1.00
H17    H     0.75727   0.34490   0.21940   0.01267  Uiso   1.00
H18    H     0.76027   0.66140   0.38010   0.01267  Uiso   1.00
H19    H     0.42393   0.21940   0.87450   0.01267  Uiso   1.00
H20    H     0.42693   0.38010   0.71870   0.01267  Uiso   1.00
H21    H     0.09060   0.12550   0.34490   0.01267  Uiso   1.00
H22    H     0.09360   0.28130   0.66140   0.01267  Uiso   1.00
H23    H     0.75727   0.65510   0.78060   0.01267  Uiso   1.00
H24    H     0.76027   0.33860   0.61990   0.01267  Uiso   1.00
C1     C     0.87790   0.59210   0.82410   0.01267  Uiso   1.00
C2     C     0.92210   0.49410   0.80430   0.01267  Uiso   1.00
C3     C     0.87730   0.40200   0.73010   0.01267  Uiso   1.00
C4     C     0.01710   0.49350   0.87110   0.01267  Uiso   1.00
C5     C     0.21123   0.23200   0.40790   0.01267  Uiso   1.00
C6     C     0.25543   0.31020   0.50590   0.01267  Uiso   1.00
C7     C     0.21063   0.32810   0.59800   0.01267  Uiso   1.00
C8     C     0.35043   0.37760   0.50650   0.01267  Uiso   1.00
C9     C     0.54457   0.17590   0.76800   0.01267  Uiso   1.00
C10    C     0.58877   0.19570   0.68980   0.01267  Uiso   1.00
C11    C     0.54397   0.26990   0.67190   0.01267  Uiso   1.00
C12    C     0.68377   0.12890   0.62240   0.01267  Uiso   1.00
C13    C     0.87790   0.40790   0.17590   0.01267  Uiso   1.00
C14    C     0.92210   0.50590   0.19570   0.01267  Uiso   1.00
C15    C     0.87730   0.59800   0.26990   0.01267  Uiso   1.00
C16    C     0.01710   0.50650   0.12890   0.01267  Uiso   1.00
C17    C     0.21123   0.76800   0.59210   0.01267  Uiso   1.00
C18    C     0.25543   0.68980   0.49410   0.01267  Uiso   1.00
C19    C     0.21063   0.67190   0.40200   0.01267  Uiso   1.00
C20    C     0.35043   0.62240   0.49350   0.01267  Uiso   1.00
C21    C     0.54457   0.82410   0.23200   0.01267  Uiso   1.00
C22    C     0.58877   0.80430   0.31020   0.01267  Uiso   1.00
C23    C     0.54397   0.73010   0.32810   0.01267  Uiso   1.00
C24    C     0.68377   0.87110   0.37760   0.01267  Uiso   1.00
C25    C     0.45543   0.76800   0.17590   0.01267  Uiso   1.00
C26    C     0.41123   0.68980   0.19570   0.01267  Uiso   1.00
C27    C     0.45603   0.67190   0.26990   0.01267  Uiso   1.00
C28    C     0.31623   0.62240   0.12890   0.01267  Uiso   1.00
C29    C     0.12210   0.82410   0.59210   0.01267  Uiso   1.00
C30    C     0.07790   0.80430   0.49410   0.01267  Uiso   1.00
C31    C     0.12270   0.73010   0.40200   0.01267  Uiso   1.00
C32    C     0.98290   0.87110   0.49350   0.01267  Uiso   1.00
C33    C     0.78877   0.40790   0.23200   0.01267  Uiso   1.00
C34    C     0.74457   0.50590   0.31020   0.01267  Uiso   1.00
C35    C     0.78937   0.59800   0.32810   0.01267  Uiso   1.00
C36    C     0.64957   0.50650   0.37760   0.01267  Uiso   1.00
C37    C     0.45543   0.23200   0.82410   0.01267  Uiso   1.00
C38    C     0.41123   0.31020   0.80430   0.01267  Uiso   1.00
C39    C     0.45603   0.32810   0.73010   0.01267  Uiso   1.00
C40    C     0.31623   0.37760   0.87110   0.01267  Uiso   1.00
C41    C     0.12210   0.17590   0.40790   0.01267  Uiso   1.00
C42    C     0.07790   0.19570   0.50590   0.01267  Uiso   1.00
C43    C     0.12270   0.26990   0.59800   0.01267  Uiso   1.00
C44    C     0.98290   0.12890   0.50650   0.01267  Uiso   1.00
C45    C     0.78877   0.59210   0.76800   0.01267  Uiso   1.00
C46    C     0.74457   0.49410   0.68980   0.01267  Uiso   1.00
C47    C     0.78937   0.40200   0.67190   0.01267  Uiso   1.00
C48    C     0.64957   0.49350   0.62240   0.01267  Uiso   1.00
O1     O     0.06720   0.58060   0.92960   0.01267  Uiso   1.00
O2     O     0.04160   0.41280   0.87120   0.01267  Uiso   1.00
O3     O     0.40053   0.34900   0.41940   0.01267  Uiso   1.00
O4     O     0.37493   0.45840   0.58720   0.01267  Uiso   1.00
O5     O     0.73387   0.07040   0.65100   0.01267  Uiso   1.00
O6     O     0.70827   0.12880   0.54160   0.01267  Uiso   1.00
O7     O     0.06720   0.41940   0.07040   0.01267  Uiso   1.00
O8     O     0.04160   0.58720   0.12880   0.01267  Uiso   1.00
O9     O     0.40053   0.65100   0.58060   0.01267  Uiso   1.00
O10    O     0.37493   0.54160   0.41280   0.01267  Uiso   1.00
O11    O     0.73387   0.92960   0.34900   0.01267  Uiso   1.00
O12    O     0.70827   0.87120   0.45840   0.01267  Uiso   1.00
O13    O     0.26613   0.65100   0.07040   0.01267  Uiso   1.00
O14    O     0.29173   0.54160   0.12880   0.01267  Uiso   1.00
O15    O     0.93280   0.92960   0.58060   0.01267  Uiso   1.00
O16    O     0.95840   0.87120   0.41280   0.01267  Uiso   1.00
O17    O     0.59947   0.41940   0.34900   0.01267  Uiso   1.00
O18    O     0.62507   0.58720   0.45840   0.01267  Uiso   1.00
O19    O     0.26613   0.34900   0.92960   0.01267  Uiso   1.00
O20    O     0.29173   0.45840   0.87120   0.01267  Uiso   1.00
O21    O     0.93280   0.07040   0.41940   0.01267  Uiso   1.00
O22    O     0.95840   0.12880   0.58720   0.01267  Uiso   1.00
O23    O     0.59947   0.58060   0.65100   0.01267  Uiso   1.00
O24    O     0.62507   0.41280   0.54160   0.01267  Uiso   1.00
