data_VAHSIH_clean
_audit_creation_date              2014-07-02
_audit_creation_method            'Materials Studio'
_symmetry_space_group_name_H-M    'P1'
_symmetry_Int_Tables_number       1
_symmetry_cell_setting            triclinic
loop_
_symmetry_equiv_pos_as_xyz
  x,y,z
_cell_length_a                    10.3738
_cell_length_b                    13.4494
_cell_length_c                    14.8060
_cell_angle_alpha                 90.0000
_cell_angle_beta                  90.0000
_cell_angle_gamma                 90.2750
loop_
_atom_site_label
_atom_site_type_symbol
_atom_site_fract_x
_atom_site_fract_y
_atom_site_fract_z
_atom_site_U_iso_or_equiv
_atom_site_adp_type
_atom_site_occupancy
Al1    Al    0.23450   0.65080   0.89470   0.01267  Uiso   1.00
Al2    Al    0.22960   0.38700   0.10060   0.01267  Uiso   1.00
Al3    Al    0.50750   0.72780   0.10410   0.01267  Uiso   1.00
Al4    Al    0.00220   0.38420   0.76800   0.01267  Uiso   1.00
Al5    Al    0.26550   0.84920   0.39470   0.01267  Uiso   1.00
Al6    Al    0.27040   0.11300   0.60060   0.01267  Uiso   1.00
Al7    Al    0.99250   0.77220   0.60410   0.01267  Uiso   1.00
Al8    Al    0.49780   0.11580   0.26800   0.01267  Uiso   1.00
Al9    Al    0.76550   0.34920   0.10530   0.01267  Uiso   1.00
Al10   Al    0.77040   0.61300   0.89940   0.01267  Uiso   1.00
Al11   Al    0.49250   0.27220   0.89590   0.01267  Uiso   1.00
Al12   Al    0.99780   0.61580   0.23200   0.01267  Uiso   1.00
Al13   Al    0.73450   0.15080   0.60530   0.01267  Uiso   1.00
Al14   Al    0.72960   0.88700   0.39940   0.01267  Uiso   1.00
Al15   Al    0.00750   0.22780   0.39590   0.01267  Uiso   1.00
Al16   Al    0.50220   0.88420   0.73200   0.01267  Uiso   1.00
P1     P     0.23270   0.61980   0.10450   0.01267  Uiso   1.00
P2     P     0.24080   0.40270   0.89210   0.01267  Uiso   1.00
P3     P     0.51420   0.73530   0.89420   0.01267  Uiso   1.00
P4     P     0.00050   0.62160   0.76500   0.01267  Uiso   1.00
P5     P     0.26730   0.88020   0.60450   0.01267  Uiso   1.00
P6     P     0.25920   0.09730   0.39210   0.01267  Uiso   1.00
P7     P     0.98580   0.76470   0.39420   0.01267  Uiso   1.00
P8     P     0.49950   0.87840   0.26500   0.01267  Uiso   1.00
P9     P     0.76730   0.38020   0.89550   0.01267  Uiso   1.00
P10    P     0.75920   0.59730   0.10790   0.01267  Uiso   1.00
P11    P     0.48580   0.26470   0.10580   0.01267  Uiso   1.00
P12    P     0.99950   0.37840   0.23500   0.01267  Uiso   1.00
P13    P     0.73270   0.11980   0.39550   0.01267  Uiso   1.00
P14    P     0.74080   0.90270   0.60790   0.01267  Uiso   1.00
P15    P     0.01420   0.23530   0.60580   0.01267  Uiso   1.00
P16    P     0.50050   0.12160   0.73500   0.01267  Uiso   1.00
O1     O     0.14380   0.35690   0.82520   0.01267  Uiso   1.00
O2     O     0.19630   0.36890   0.98690   0.01267  Uiso   1.00
O3     O     0.24750   0.51310   0.88320   0.01267  Uiso   1.00
O4     O     0.40460   0.66350   0.87830   0.01267  Uiso   1.00
O5     O     0.50220   0.82870   0.83700   0.01267  Uiso   1.00
O6     O     0.52130   0.76870   0.99310   0.01267  Uiso   1.00
O7     O     0.63980   0.68370   0.86800   0.01267  Uiso   1.00
O8     O     0.90150   0.65250   0.83620   0.01267  Uiso   1.00
O9     O     0.98920   0.50990   0.74840   0.01267  Uiso   1.00
O10    O     0.96990   0.67250   0.67550   0.01267  Uiso   1.00
O11    O     0.13410   0.65140   0.79620   0.01267  Uiso   1.00
O12    O     0.26250   0.51030   0.12330   0.01267  Uiso   1.00
O13    O     0.18230   0.63400   0.00980   0.01267  Uiso   1.00
O14    O     0.13100   0.65630   0.17140   0.01267  Uiso   1.00
O15    O     0.35570   0.67940   0.12130   0.01267  Uiso   1.00
O16    O     0.37360   0.35830   0.87330   0.01267  Uiso   1.00
O17    O     0.35620   0.14310   0.32520   0.01267  Uiso   1.00
O18    O     0.30370   0.13110   0.48690   0.01267  Uiso   1.00
O19    O     0.25250   0.98690   0.38320   0.01267  Uiso   1.00
O20    O     0.09540   0.83650   0.37830   0.01267  Uiso   1.00
O21    O     0.99780   0.67130   0.33700   0.01267  Uiso   1.00
O22    O     0.97870   0.73130   0.49310   0.01267  Uiso   1.00
O23    O     0.86020   0.81630   0.36800   0.01267  Uiso   1.00
O24    O     0.59850   0.84750   0.33620   0.01267  Uiso   1.00
O25    O     0.51080   0.99010   0.24840   0.01267  Uiso   1.00
O26    O     0.53010   0.82750   0.17550   0.01267  Uiso   1.00
O27    O     0.36590   0.84860   0.29620   0.01267  Uiso   1.00
O28    O     0.23750   0.98970   0.62330   0.01267  Uiso   1.00
O29    O     0.31770   0.86600   0.50980   0.01267  Uiso   1.00
O30    O     0.36900   0.84370   0.67140   0.01267  Uiso   1.00
O31    O     0.14430   0.82060   0.62130   0.01267  Uiso   1.00
O32    O     0.12640   0.14170   0.37330   0.01267  Uiso   1.00
O33    O     0.85620   0.64310   0.17480   0.01267  Uiso   1.00
O34    O     0.80370   0.63110   0.01310   0.01267  Uiso   1.00
O35    O     0.75250   0.48690   0.11680   0.01267  Uiso   1.00
O36    O     0.59540   0.33650   0.12170   0.01267  Uiso   1.00
O37    O     0.49780   0.17130   0.16300   0.01267  Uiso   1.00
O38    O     0.47870   0.23130   0.00690   0.01267  Uiso   1.00
O39    O     0.36020   0.31630   0.13200   0.01267  Uiso   1.00
O40    O     0.09850   0.34750   0.16380   0.01267  Uiso   1.00
O41    O     0.01080   0.49010   0.25160   0.01267  Uiso   1.00
O42    O     0.03010   0.32750   0.32450   0.01267  Uiso   1.00
O43    O     0.86590   0.34860   0.20380   0.01267  Uiso   1.00
O44    O     0.73750   0.48970   0.87670   0.01267  Uiso   1.00
O45    O     0.81770   0.36600   0.99020   0.01267  Uiso   1.00
O46    O     0.86900   0.34370   0.82860   0.01267  Uiso   1.00
O47    O     0.64430   0.32060   0.87870   0.01267  Uiso   1.00
O48    O     0.62640   0.64170   0.12670   0.01267  Uiso   1.00
O49    O     0.64380   0.85690   0.67480   0.01267  Uiso   1.00
O50    O     0.69630   0.86890   0.51310   0.01267  Uiso   1.00
O51    O     0.74750   0.01310   0.61680   0.01267  Uiso   1.00
O52    O     0.90460   0.16350   0.62170   0.01267  Uiso   1.00
O53    O     0.00220   0.32870   0.66300   0.01267  Uiso   1.00
O54    O     0.02130   0.26870   0.50690   0.01267  Uiso   1.00
O55    O     0.13980   0.18370   0.63200   0.01267  Uiso   1.00
O56    O     0.40150   0.15250   0.66380   0.01267  Uiso   1.00
O57    O     0.48920   0.00990   0.75160   0.01267  Uiso   1.00
O58    O     0.46990   0.17250   0.82450   0.01267  Uiso   1.00
O59    O     0.63410   0.15140   0.70380   0.01267  Uiso   1.00
O60    O     0.76250   0.01030   0.37670   0.01267  Uiso   1.00
O61    O     0.68230   0.13400   0.49020   0.01267  Uiso   1.00
O62    O     0.63100   0.15630   0.32860   0.01267  Uiso   1.00
O63    O     0.85570   0.17940   0.37870   0.01267  Uiso   1.00
O64    O     0.87360   0.85830   0.62670   0.01267  Uiso   1.00
F1     F     0.20910   0.77960   0.90830   0.01267  Uiso   1.00
F2     F     0.29090   0.72040   0.40830   0.01267  Uiso   1.00
F3     F     0.79090   0.22040   0.09170   0.01267  Uiso   1.00
F4     F     0.70910   0.27960   0.59170   0.01267  Uiso   1.00
