data_VAKRIK_ion_b
_audit_creation_date              2014-07-02
_audit_creation_method            'Materials Studio'
_symmetry_space_group_name_H-M    'P1'
_symmetry_Int_Tables_number       1
_symmetry_cell_setting            triclinic
loop_
_symmetry_equiv_pos_as_xyz
  x,y,z
_cell_length_a                    17.3188
_cell_length_b                    17.3188
_cell_length_c                    18.3110
_cell_angle_alpha                 92.5031
_cell_angle_beta                  92.5031
_cell_angle_gamma                 32.7565
loop_
_atom_site_label
_atom_site_type_symbol
_atom_site_fract_x
_atom_site_fract_y
_atom_site_fract_z
_atom_site_U_iso_or_equiv
_atom_site_adp_type
_atom_site_occupancy
Co1    Co    0.64911   0.04569   0.01300   0.00000  Uiso   1.00
O2     O     0.53896   0.15356   0.92090   0.00000  Uiso   1.00
O3     O     0.40425   0.16505   0.94209   0.00000  Uiso   1.00
O4     O     0.15626   0.52506   0.59920   0.00000  Uiso   1.00
O5     O     0.08822   0.45882   0.59962   0.00000  Uiso   1.00
O6     O     0.83745   0.80625   0.09150   0.00000  Uiso   1.00
O7     O     0.70573   0.88713   0.99360   0.00000  Uiso   1.00
C8     C     0.36760   0.25840   0.83160   0.00000  Uiso   1.00
C9     C     0.27642   0.27782   0.80460   0.00000  Uiso   1.00
H10    H     0.26130   0.24670   0.83100   0.00000  Uiso   1.00
C11    C     0.20725   0.34405   0.73760   0.00000  Uiso   1.00
H12    H     0.14730   0.35530   0.71900   0.00000  Uiso   1.00
C13    C     0.22679   0.39299   0.69870   0.00000  Uiso   1.00
C14    C     0.31609   0.37469   0.72590   0.00000  Uiso   1.00
H15    H     0.33030   0.40690   0.69970   0.00000  Uiso   1.00
C16    C     0.38590   0.30810   0.79260   0.00000  Uiso   1.00
H17    H     0.44580   0.29700   0.81090   0.00000  Uiso   1.00
C18    C     0.44313   0.18693   0.90380   0.00000  Uiso   1.00
C19    C     0.14993   0.46533   0.62660   0.00000  Uiso   1.00
C20    C     0.01900   0.52520   0.06550   0.00000  Uiso   1.00
H21    H     0.03170   0.54290   0.10950   0.00000  Uiso   1.00
C22    C     0.90769   0.63749   0.01790   0.00000  Uiso   1.00
C23    C     0.89000   0.61120   0.95250   0.00000  Uiso   1.00
H24    H     0.81660   0.68560   0.92050   0.00000  Uiso   1.00
C25    C     0.81201   0.78501   0.03760   0.00000  Uiso   1.00
C26    C     0.04780   0.88780   0.97800   0.00000  Uiso   1.00
H27    H     0.08210   0.81050   0.96290   0.00000  Uiso   1.00
C28    C     0.91100   0.01120   0.00130   0.00000  Uiso   1.00
C29    C     0.13580   0.87880   0.97710   0.00000  Uiso   1.00
H30    H     0.22910   0.79450   0.96110   0.00000  Uiso   1.00
C31    C     0.83470   0.99670   0.99220   0.00000  Uiso   1.00
O32    O     0.74260   0.06540   0.03290   0.00000  Uiso   1.00
O33    O     0.86590   0.91690   0.94470   0.00000  Uiso   1.00
N46    N     0.53610   0.53410   0.75100   0.00000  Uiso   1.00
H47    H     0.46450   0.55950   0.74760   0.00000  Uiso   1.00
H48    H     0.50050   0.61030   0.73970   0.00000  Uiso   1.00
C49    C     0.65200   0.41400   0.69800   0.00000  Uiso   1.00
H50    H     0.61440   0.44400   0.64900   0.00000  Uiso   1.00
H51    H     0.68660   0.33360   0.70880   0.00000  Uiso   1.00
H52    H     0.72910   0.38470   0.70270   0.00000  Uiso   1.00
Co69   Co    0.95431   0.35089   0.48700   0.00000  Uiso   1.00
O70    O     0.84644   0.46104   0.57910   0.00000  Uiso   1.00
O71    O     0.83495   0.59575   0.55791   0.00000  Uiso   1.00
O72    O     0.47494   0.84374   0.90080   0.00000  Uiso   1.00
O73    O     0.54118   0.91178   0.90038   0.00000  Uiso   1.00
O74    O     0.19375   0.16255   0.40850   0.00000  Uiso   1.00
O75    O     0.11287   0.29427   0.50640   0.00000  Uiso   1.00
C76    C     0.74160   0.63240   0.66840   0.00000  Uiso   1.00
C77    C     0.72218   0.72358   0.69540   0.00000  Uiso   1.00
H78    H     0.75330   0.73870   0.66900   0.00000  Uiso   1.00
C79    C     0.65595   0.79275   0.76240   0.00000  Uiso   1.00
H80    H     0.64470   0.85270   0.78100   0.00000  Uiso   1.00
C81    C     0.60701   0.77321   0.80130   0.00000  Uiso   1.00
C82    C     0.62531   0.68391   0.77410   0.00000  Uiso   1.00
H83    H     0.59310   0.66970   0.80030   0.00000  Uiso   1.00
C84    C     0.69190   0.61410   0.70740   0.00000  Uiso   1.00
H85    H     0.70300   0.55420   0.68910   0.00000  Uiso   1.00
C86    C     0.81307   0.55687   0.59620   0.00000  Uiso   1.00
C87    C     0.53467   0.85007   0.87340   0.00000  Uiso   1.00
C88    C     0.47480   0.98100   0.43450   0.00000  Uiso   1.00
H89    H     0.45710   0.96830   0.39050   0.00000  Uiso   1.00
C90    C     0.36251   0.09231   0.48210   0.00000  Uiso   1.00
C91    C     0.38880   0.11000   0.54750   0.00000  Uiso   1.00
H92    H     0.31440   0.18340   0.57950   0.00000  Uiso   1.00
C93    C     0.21499   0.18799   0.46240   0.00000  Uiso   1.00
C94    C     0.11220   0.95220   0.52200   0.00000  Uiso   1.00
H95    H     0.18950   0.91790   0.53710   0.00000  Uiso   1.00
C96    C     0.98880   0.08900   0.49870   0.00000  Uiso   1.00
C97    C     0.12120   0.86420   0.52290   0.00000  Uiso   1.00
H98    H     0.20550   0.77090   0.53890   0.00000  Uiso   1.00
C99    C     0.00330   0.16530   0.50780   0.00000  Uiso   1.00
O100   O     0.93460   0.25740   0.46710   0.00000  Uiso   1.00
O101   O     0.08310   0.13410   0.55530   0.00000  Uiso   1.00
N114   N     0.46590   0.46390   0.74900   0.00000  Uiso   1.00
H115   H     0.44050   0.53550   0.75240   0.00000  Uiso   1.00
H116   H     0.38970   0.49950   0.76030   0.00000  Uiso   1.00
C121   C     0.51200   0.40400   0.67100   0.00000  Uiso   1.00
H122   H     0.43670   0.47930   0.63710   0.00000  Uiso   1.00
H123   H     0.53220   0.33240   0.66620   0.00000  Uiso   1.00
H124   H     0.59610   0.36170   0.65960   0.00000  Uiso   1.00
Co137  Co    0.35089   0.95431   0.98700   0.00000  Uiso   1.00
O138   O     0.46104   0.84644   0.07910   0.00000  Uiso   1.00
O139   O     0.59575   0.83495   0.05791   0.00000  Uiso   1.00
O140   O     0.84374   0.47494   0.40080   0.00000  Uiso   1.00
O141   O     0.91178   0.54118   0.40038   0.00000  Uiso   1.00
O142   O     0.16255   0.19375   0.90850   0.00000  Uiso   1.00
O143   O     0.29427   0.11287   0.00640   0.00000  Uiso   1.00
C144   C     0.63240   0.74160   0.16840   0.00000  Uiso   1.00
C145   C     0.72358   0.72218   0.19540   0.00000  Uiso   1.00
H146   H     0.73870   0.75330   0.16900   0.00000  Uiso   1.00
C147   C     0.79275   0.65595   0.26240   0.00000  Uiso   1.00
H148   H     0.85270   0.64470   0.28100   0.00000  Uiso   1.00
C149   C     0.77321   0.60701   0.30130   0.00000  Uiso   1.00
C150   C     0.68391   0.62531   0.27410   0.00000  Uiso   1.00
H151   H     0.66970   0.59310   0.30030   0.00000  Uiso   1.00
C152   C     0.61410   0.69190   0.20740   0.00000  Uiso   1.00
H153   H     0.55420   0.70300   0.18910   0.00000  Uiso   1.00
C154   C     0.55687   0.81307   0.09620   0.00000  Uiso   1.00
C155   C     0.85007   0.53467   0.37340   0.00000  Uiso   1.00
C156   C     0.98100   0.47480   0.93450   0.00000  Uiso   1.00
H157   H     0.96830   0.45710   0.89050   0.00000  Uiso   1.00
C158   C     0.09231   0.36251   0.98210   0.00000  Uiso   1.00
C159   C     0.11000   0.38880   0.04750   0.00000  Uiso   1.00
H160   H     0.18340   0.31440   0.07950   0.00000  Uiso   1.00
C161   C     0.18799   0.21499   0.96240   0.00000  Uiso   1.00
C162   C     0.95220   0.11220   0.02200   0.00000  Uiso   1.00
H163   H     0.91790   0.18950   0.03710   0.00000  Uiso   1.00
C164   C     0.08900   0.98880   0.99870   0.00000  Uiso   1.00
C165   C     0.86420   0.12120   0.02290   0.00000  Uiso   1.00
H166   H     0.77090   0.20550   0.03890   0.00000  Uiso   1.00
C167   C     0.16530   0.00330   0.00780   0.00000  Uiso   1.00
O168   O     0.25740   0.93460   0.96710   0.00000  Uiso   1.00
O169   O     0.13410   0.08310   0.05530   0.00000  Uiso   1.00
N182   N     0.46390   0.46590   0.24900   0.00000  Uiso   1.00
H183   H     0.53550   0.44050   0.25240   0.00000  Uiso   1.00
H184   H     0.49950   0.38970   0.26030   0.00000  Uiso   1.00
C189   C     0.40400   0.51200   0.17100   0.00000  Uiso   1.00
H190   H     0.47930   0.43670   0.13710   0.00000  Uiso   1.00
H191   H     0.33240   0.53220   0.16620   0.00000  Uiso   1.00
H192   H     0.36170   0.59610   0.15960   0.00000  Uiso   1.00
Co205  Co    0.04569   0.64911   0.51300   0.00000  Uiso   1.00
O206   O     0.15356   0.53896   0.42090   0.00000  Uiso   1.00
O207   O     0.16505   0.40425   0.44209   0.00000  Uiso   1.00
O208   O     0.52506   0.15626   0.09920   0.00000  Uiso   1.00
O209   O     0.45882   0.08822   0.09962   0.00000  Uiso   1.00
O210   O     0.80625   0.83745   0.59150   0.00000  Uiso   1.00
O211   O     0.88713   0.70573   0.49360   0.00000  Uiso   1.00
C212   C     0.25840   0.36760   0.33160   0.00000  Uiso   1.00
C213   C     0.27782   0.27642   0.30460   0.00000  Uiso   1.00
H214   H     0.24670   0.26130   0.33100   0.00000  Uiso   1.00
C215   C     0.34405   0.20725   0.23760   0.00000  Uiso   1.00
H216   H     0.35530   0.14730   0.21900   0.00000  Uiso   1.00
C217   C     0.39299   0.22679   0.19870   0.00000  Uiso   1.00
C218   C     0.37469   0.31609   0.22590   0.00000  Uiso   1.00
H219   H     0.40690   0.33030   0.19970   0.00000  Uiso   1.00
C220   C     0.30810   0.38590   0.29260   0.00000  Uiso   1.00
H221   H     0.29700   0.44580   0.31090   0.00000  Uiso   1.00
C222   C     0.18693   0.44313   0.40380   0.00000  Uiso   1.00
C223   C     0.46533   0.14993   0.12660   0.00000  Uiso   1.00
C224   C     0.52520   0.01900   0.56550   0.00000  Uiso   1.00
H225   H     0.54290   0.03170   0.60950   0.00000  Uiso   1.00
C226   C     0.63749   0.90769   0.51790   0.00000  Uiso   1.00
C227   C     0.61120   0.89000   0.45250   0.00000  Uiso   1.00
H228   H     0.68560   0.81660   0.42050   0.00000  Uiso   1.00
C229   C     0.78501   0.81201   0.53760   0.00000  Uiso   1.00
C230   C     0.88780   0.04780   0.47800   0.00000  Uiso   1.00
H231   H     0.81050   0.08210   0.46290   0.00000  Uiso   1.00
C232   C     0.01120   0.91100   0.50130   0.00000  Uiso   1.00
C233   C     0.87880   0.13580   0.47710   0.00000  Uiso   1.00
H234   H     0.79450   0.22910   0.46110   0.00000  Uiso   1.00
C235   C     0.99670   0.83470   0.49220   0.00000  Uiso   1.00
O236   O     0.06540   0.74260   0.53290   0.00000  Uiso   1.00
O237   O     0.91690   0.86590   0.44470   0.00000  Uiso   1.00
N250   N     0.53410   0.53610   0.25100   0.00000  Uiso   1.00
H251   H     0.55950   0.46450   0.24760   0.00000  Uiso   1.00
H252   H     0.61030   0.50050   0.23970   0.00000  Uiso   1.00
C253   C     0.41400   0.65200   0.19800   0.00000  Uiso   1.00
H254   H     0.44400   0.61440   0.14900   0.00000  Uiso   1.00
H255   H     0.33360   0.68660   0.20880   0.00000  Uiso   1.00
H256   H     0.38470   0.72910   0.20270   0.00000  Uiso   1.00
Co273  Co    0.50000  -0.00000  -0.00000   0.00000  Uiso   1.00
Co274  Co    0.00000   0.50000   0.50000   0.00000  Uiso   1.00
loop_
_geom_bond_atom_site_label_1
_geom_bond_atom_site_label_2
_geom_bond_distance
_geom_bond_site_symmetry_2
_ccdc_geom_bond_type
Co1    O32     1.933   .     S
Co1    O208    1.971   .     S
Co1    O2      1.993   1_554 S
Co1    O7      2.011   1_544 S
O2     C18     1.242   .     D
O2     Co1     1.993   1_556 S
O3     C18     1.258   .     S
O3     Co273   2.045   1_556 S
O4     C19     1.255   .     S
O4     Co205   1.971   .     S
O5     C19     1.245   .     D
O5     Co274   2.051   .     S
O6     C25     1.227   .     D
O7     Co1     2.011   1_566 S
O7     C25     1.298   1_556 S
O7     Co273   2.198   1_566 D
C8     C9      1.380   .     D
C8     C16     1.372   .     S
C8     C18     1.503   .     S
C9     H10     0.929   .     S
C9     C11     1.393   .     S
C11    H12     0.931   .     S
C11    C13     1.377   .     D
C13    C14     1.365   .     S
C13    C19     1.507   .     S
C14    H15     0.931   .     S
C14    C16     1.390   .     D
C16    H17     0.930   .     S
C20    H21     0.932   .     S
C20    C159    1.374   .     D
C20    C22     1.398   1_455 S
C22    C25     1.501   .     S
C22    C20     1.398   1_655 S
C22    C23     1.375   1_554 D
C23    H24     0.930   .     S
C23    C156    1.374   .     S
C23    C22     1.375   1_556 D
C25    O7      1.298   1_554 S
C26    H27     0.931   .     S
C26    C29     1.396   .     S
C26    C28     1.362   1_466 S
C28    C165    1.345   .     S
C28    C26     1.362   1_644 S
C28    C31     1.540   1_544 S
C29    H30     0.930   .     S
C29    C164    1.345   .     D
C31    O33     1.280   .     D
C31    C28     1.540   1_566 S
C31    O32     1.162   1_566 S
O32    C31     1.162   1_544 S
N46    H47     0.902   .     S
N46    H48     0.899   .     S
N46    C49     1.506   .     S
C49    H50     0.959   .     S
C49    H51     0.973   .     S
C49    H52     0.950   .     S
Co69   O70     1.993   .     S
Co69   O100    1.933   .     S
Co69   O140    1.971   .     S
Co69   O75     2.011   1_655 S
O70    C86     1.242   .     D
O71    C86     1.258   .     S
O71    Co274   2.045   1_655 D
O72    C87     1.255   .     S
O72    Co137   1.971   .     S
O73    C87     1.245   .     D
O73    Co273   2.051   1_566 S
O74    C93     1.227   .     D
O75    C93     1.298   .     S
O75    Co274   2.198   .     S
O75    Co69    2.011   1_455 S
C76    C77     1.380   .     D
C76    C84     1.372   .     S
C76    C86     1.503   .     S
C77    H78     0.929   .     S
C77    C79     1.393   .     S
C79    H80     0.931   .     S
C79    C81     1.377   .     D
C81    C82     1.365   .     S
C81    C87     1.507   .     S
C82    H83     0.931   .     S
C82    C84     1.390   .     D
C84    H85     0.930   .     S
C88    H89     0.932   .     S
C88    C227    1.374   .     D
C88    C90     1.398   1_565 D
C90    C91     1.375   .     D
C90    C93     1.501   .     S
C90    C88     1.398   1_545 D
C91    H92     0.930   .     S
C91    C224    1.374   .     S
C94    H95     0.931   .     S
C94    C97     1.396   .     S
C94    C96     1.362   1_465 S
C96    C233    1.345   .     S
C96    C94     1.362   1_645 S
C96    C99     1.540   1_655 S
C97    H98     0.930   .     S
C97    C232    1.345   .     D
C99    O101    1.280   .     D
C99    C96     1.540   1_455 S
C99    O100    1.162   1_455 S
O100   C99     1.162   1_655 S
N114   H115    0.902   .     S
N114   H116    0.899   .     S
N114   C121    1.527   .     S
C121   H122    0.962   .     S
C121   H123    0.965   .     S
C121   H124    0.959   .     S
Co137  O168    1.933   .     S
Co137  O138    1.993   1_556 D
Co137  O143    2.011   1_566 D
O138   C154    1.242   .     D
O138   Co137   1.993   1_554 D
O139   C154    1.258   .     S
O139   Co273   2.045   1_565 S
O140   C155    1.255   .     D
O141   C155    1.245   .     S
O141   Co274   2.051   1_655 S
O142   C161    1.227   .     D
O143   Co273   2.198   .     S
O143   Co137   2.011   1_544 D
O143   C161    1.298   1_554 S
C144   C145    1.380   .     D
C144   C152    1.372   .     S
C144   C154    1.503   .     S
C145   H146    0.929   .     S
C145   C147    1.393   .     S
C147   H148    0.931   .     S
C147   C149    1.377   .     D
C149   C150    1.365   .     S
C149   C155    1.507   .     S
C150   H151    0.931   .     S
C150   C152    1.390   .     D
C152   H153    0.930   .     S
C156   H157    0.932   .     S
C156   C158    1.398   1_655 S
C158   C161    1.501   .     S
C158   C156    1.398   1_455 S
C158   C159    1.375   1_556 S
C159   H160    0.930   .     S
C159   C158    1.375   1_554 S
C161   O143    1.298   1_556 S
C162   H163    0.931   .     S
C162   C165    1.396   .     D
C162   C164    1.362   1_644 S
C164   C162    1.362   1_466 S
C164   C167    1.540   1_566 S
C165   H166    0.930   .     S
C167   O169    1.280   .     D
C167   C164    1.540   1_544 S
C167   O168    1.162   1_544 D
O168   C167    1.162   1_566 D
N182   H183    0.902   .     S
N182   H184    0.899   .     S
N182   C189    1.527   .     S
C189   H190    0.962   .     S
C189   H191    0.965   .     S
C189   H192    0.959   .     S
Co205  O206    1.993   .     S
Co205  O236    1.933   .     S
Co205  O211    2.011   1_455 S
O206   C222    1.242   .     S
O207   C222    1.258   .     D
O207   Co274   2.045   .     S
O208   C223    1.255   .     D
O209   C223    1.245   .     S
O209   Co273   2.051   .     S
O210   C229    1.227   .     D
O211   C229    1.298   .     S
O211   Co205   2.011   1_655 S
O211   Co274   2.198   1_655 S
C212   C213    1.380   .     D
C212   C220    1.372   .     S
C212   C222    1.503   .     S
C213   H214    0.929   .     S
C213   C215    1.393   .     S
C215   H216    0.931   .     S
C215   C217    1.377   .     D
C217   C218    1.365   .     S
C217   C223    1.507   .     S
C218   H219    0.931   .     S
C218   C220    1.390   .     D
C220   H221    0.930   .     S
C224   H225    0.932   .     S
C224   C226    1.398   1_545 S
C226   C227    1.375   .     S
C226   C229    1.501   .     S
C226   C224    1.398   1_565 S
C227   H228    0.930   .     S
C230   H231    0.931   .     S
C230   C233    1.396   .     D
C230   C232    1.362   1_645 S
C232   C230    1.362   1_465 S
C232   C235    1.540   1_455 D
C233   H234    0.930   .     S
C235   O237    1.280   .     D
C235   C232    1.540   1_655 D
C235   O236    1.162   1_655 S
O236   C235    1.162   1_455 S
N250   H251    0.902   .     S
N250   H252    0.899   .     S
N250   C253    1.506   .     S
C253   H254    0.959   .     S
C253   H255    0.973   .     S
C253   H256    0.950   .     S
Co273  O3      2.045   1_554 S
Co273  O7      2.198   1_544 D
Co273  O73     2.051   1_544 S
Co273  O139    2.045   1_545 S
Co274  O71     2.045   1_455 D
Co274  O141    2.051   1_455 S
Co274  O211    2.198   1_455 S
