data_VARRIP_clean
_audit_creation_date              2014-07-02
_audit_creation_method            'Materials Studio'
_symmetry_space_group_name_H-M    'P1'
_symmetry_Int_Tables_number       1
_symmetry_cell_setting            triclinic
loop_
_symmetry_equiv_pos_as_xyz
  x,y,z
_cell_length_a                    9.1840
_cell_length_b                    9.1840
_cell_length_c                    17.8130
_cell_angle_alpha                 90.0000
_cell_angle_beta                  90.0000
_cell_angle_gamma                 120.0000
loop_
_atom_site_label
_atom_site_type_symbol
_atom_site_fract_x
_atom_site_fract_y
_atom_site_fract_z
_atom_site_U_iso_or_equiv
_atom_site_adp_type
_atom_site_occupancy
La1    La    0.66667   0.33334   0.25000   0.01267  Uiso   1.00
La2    La    0.33333   0.66666   0.75000   0.01267  Uiso   1.00
Y1     Y     0.00000   0.00000   0.00000   0.01267  Uiso   1.00
Y2     Y     0.00000   0.00000   0.50000   0.01267  Uiso   1.00
H1     H     0.42570   0.40060   0.08200   0.01267  Uiso   1.00
H2     H     0.48970   0.32270   0.02370   0.01267  Uiso   1.00
H3     H     0.97490   0.57430   0.08200   0.01267  Uiso   1.00
H4     H     0.83300   0.51030   0.02370   0.01267  Uiso   1.00
H5     H     0.59940   0.02510   0.08200   0.01267  Uiso   1.00
H6     H     0.67730   0.16700   0.02370   0.01267  Uiso   1.00
H7     H     0.42570   0.40060   0.41800   0.01267  Uiso   1.00
H8     H     0.48970   0.32270   0.47630   0.01267  Uiso   1.00
H9     H     0.97490   0.57430   0.41800   0.01267  Uiso   1.00
H10    H     0.83300   0.51030   0.47630   0.01267  Uiso   1.00
H11    H     0.59940   0.02510   0.41800   0.01267  Uiso   1.00
H12    H     0.67730   0.16700   0.47630   0.01267  Uiso   1.00
H13    H     0.02510   0.59940   0.91800   0.01267  Uiso   1.00
H14    H     0.16700   0.67730   0.97630   0.01267  Uiso   1.00
H15    H     0.40060   0.42570   0.91800   0.01267  Uiso   1.00
H16    H     0.32270   0.48970   0.97630   0.01267  Uiso   1.00
H17    H     0.57430   0.97490   0.91800   0.01267  Uiso   1.00
H18    H     0.51030   0.83300   0.97630   0.01267  Uiso   1.00
H19    H     0.02510   0.59940   0.58200   0.01267  Uiso   1.00
H20    H     0.16700   0.67730   0.52370   0.01267  Uiso   1.00
H21    H     0.40060   0.42570   0.58200   0.01267  Uiso   1.00
H22    H     0.32270   0.48970   0.52370   0.01267  Uiso   1.00
H23    H     0.57430   0.97490   0.58200   0.01267  Uiso   1.00
H24    H     0.51030   0.83300   0.52370   0.01267  Uiso   1.00
C1     C     0.34020   0.15310   0.10460   0.01267  Uiso   1.00
C2     C     0.39590   0.30450   0.05240   0.01267  Uiso   1.00
C3     C     0.81290   0.65980   0.10460   0.01267  Uiso   1.00
C4     C     0.90860   0.60410   0.05240   0.01267  Uiso   1.00
C5     C     0.84690   0.18710   0.10460   0.01267  Uiso   1.00
C6     C     0.69550   0.09140   0.05240   0.01267  Uiso   1.00
C7     C     0.34020   0.15310   0.39540   0.01267  Uiso   1.00
C8     C     0.39590   0.30450   0.44760   0.01267  Uiso   1.00
C9     C     0.81290   0.65980   0.39540   0.01267  Uiso   1.00
C10    C     0.90860   0.60410   0.44760   0.01267  Uiso   1.00
C11    C     0.84690   0.18710   0.39540   0.01267  Uiso   1.00
C12    C     0.69550   0.09140   0.44760   0.01267  Uiso   1.00
C13    C     0.18710   0.84690   0.89540   0.01267  Uiso   1.00
C14    C     0.09140   0.69550   0.94760   0.01267  Uiso   1.00
C15    C     0.15310   0.34020   0.89540   0.01267  Uiso   1.00
C16    C     0.30450   0.39590   0.94760   0.01267  Uiso   1.00
C17    C     0.65980   0.81290   0.89540   0.01267  Uiso   1.00
C18    C     0.60410   0.90860   0.94760   0.01267  Uiso   1.00
C19    C     0.18710   0.84690   0.60460   0.01267  Uiso   1.00
C20    C     0.09140   0.69550   0.55240   0.01267  Uiso   1.00
C21    C     0.15310   0.34020   0.60460   0.01267  Uiso   1.00
C22    C     0.30450   0.39590   0.55240   0.01267  Uiso   1.00
C23    C     0.65980   0.81290   0.60460   0.01267  Uiso   1.00
C24    C     0.60410   0.90860   0.55240   0.01267  Uiso   1.00
O1     O     0.20090   0.02810   0.09150   0.01267  Uiso   1.00
O2     O     0.43790   0.17100   0.15600   0.01267  Uiso   1.00
O3     O     0.82720   0.79910   0.09150   0.01267  Uiso   1.00
O4     O     0.73310   0.56210   0.15600   0.01267  Uiso   1.00
O5     O     0.97190   0.17280   0.09150   0.01267  Uiso   1.00
O6     O     0.82900   0.26690   0.15600   0.01267  Uiso   1.00
O7     O     0.20090   0.02810   0.40850   0.01267  Uiso   1.00
O8     O     0.43790   0.17100   0.34400   0.01267  Uiso   1.00
O9     O     0.82720   0.79910   0.40850   0.01267  Uiso   1.00
O10    O     0.73310   0.56210   0.34400   0.01267  Uiso   1.00
O11    O     0.97190   0.17280   0.40850   0.01267  Uiso   1.00
O12    O     0.82900   0.26690   0.34400   0.01267  Uiso   1.00
O13    O     0.17280   0.97190   0.90850   0.01267  Uiso   1.00
O14    O     0.26690   0.82900   0.84400   0.01267  Uiso   1.00
O15    O     0.02810   0.20090   0.90850   0.01267  Uiso   1.00
O16    O     0.17100   0.43790   0.84400   0.01267  Uiso   1.00
O17    O     0.79910   0.82720   0.90850   0.01267  Uiso   1.00
O18    O     0.56210   0.73310   0.84400   0.01267  Uiso   1.00
O19    O     0.17280   0.97190   0.59150   0.01267  Uiso   1.00
O20    O     0.26690   0.82900   0.65600   0.01267  Uiso   1.00
O21    O     0.02810   0.20090   0.59150   0.01267  Uiso   1.00
O22    O     0.17100   0.43790   0.65600   0.01267  Uiso   1.00
O23    O     0.79910   0.82720   0.59150   0.01267  Uiso   1.00
O24    O     0.56210   0.73310   0.65600   0.01267  Uiso   1.00
O25    O     0.26630   0.26630   0.00000   0.01267  Uiso   1.00
O26    O     1.00000   0.73370   0.00000   0.01267  Uiso   1.00
O27    O     0.73370   0.00000   0.00000   0.01267  Uiso   1.00
O28    O     0.26630   0.26630   0.50000   0.01267  Uiso   1.00
O29    O     1.00000   0.73370   0.50000   0.01267  Uiso   1.00
O30    O     0.73370   0.00000   0.50000   0.01267  Uiso   1.00
