data_VEDVUW_clean
_audit_creation_date              2014-07-02
_audit_creation_method            'Materials Studio'
_symmetry_space_group_name_H-M    'P1'
_symmetry_Int_Tables_number       1
_symmetry_cell_setting            triclinic
loop_
_symmetry_equiv_pos_as_xyz
  x,y,z
_cell_length_a                    8.8084
_cell_length_b                    13.0912
_cell_length_c                    13.0912
_cell_angle_alpha                 93.8887
_cell_angle_beta                  109.4340
_cell_angle_gamma                 70.5657
loop_
_atom_site_label
_atom_site_type_symbol
_atom_site_fract_x
_atom_site_fract_y
_atom_site_fract_z
_atom_site_U_iso_or_equiv
_atom_site_adp_type
_atom_site_occupancy
Ag1    Ag    0.82906   0.42054   0.63680   0.01267  Uiso   1.00
Ag2    Ag    0.67094   0.63680   0.42054   0.01267  Uiso   1.00
Ag3    Ag    0.17094   0.57946   0.36320   0.01267  Uiso   1.00
Ag4    Ag    0.32906   0.36320   0.57946   0.01267  Uiso   1.00
H1     H     0.31650   0.15850   0.64470   0.01267  Uiso   1.00
H2     H     0.40950   0.98200   0.72060   0.01267  Uiso   1.00
H3     H     0.38310   0.95300   0.88580   0.01267  Uiso   1.00
H4     H     0.26630   0.10080   0.97880   0.01267  Uiso   1.00
H5     H     0.16740   0.27790   0.90290   0.01267  Uiso   1.00
H6     H     0.14180   0.44750   0.86450   0.01267  Uiso   1.00
H7     H     0.14530   0.53090   0.78250   0.01267  Uiso   1.00
H8     H     0.44020   0.35740   0.90120   0.01267  Uiso   1.00
H9     H     0.44150   0.44560   0.82260   0.01267  Uiso   1.00
H10    H     0.34560   0.49990   0.01450   0.01267  Uiso   1.00
H11    H     0.35400   0.58620   0.93720   0.01267  Uiso   1.00
H12    H     0.18350   0.64470   0.15850   0.01267  Uiso   1.00
H13    H     0.09050   0.72060   0.98200   0.01267  Uiso   1.00
H14    H     0.11690   0.88580   0.95300   0.01267  Uiso   1.00
H15    H     0.23370   0.97880   0.10080   0.01267  Uiso   1.00
H16    H     0.33260   0.90290   0.27790   0.01267  Uiso   1.00
H17    H     0.35820   0.86450   0.44750   0.01267  Uiso   1.00
H18    H     0.35470   0.78250   0.53090   0.01267  Uiso   1.00
H19    H     0.05980   0.90120   0.35740   0.01267  Uiso   1.00
H20    H     0.05850   0.82260   0.44560   0.01267  Uiso   1.00
H21    H     0.15440   0.01450   0.49990   0.01267  Uiso   1.00
H22    H     0.14600   0.93720   0.58620   0.01267  Uiso   1.00
H23    H     0.68350   0.84150   0.35530   0.01267  Uiso   1.00
H24    H     0.59050   0.01800   0.27940   0.01267  Uiso   1.00
H25    H     0.61690   0.04700   0.11420   0.01267  Uiso   1.00
H26    H     0.73370   0.89920   0.02120   0.01267  Uiso   1.00
H27    H     0.83260   0.72210   0.09710   0.01267  Uiso   1.00
H28    H     0.85820   0.55250   0.13550   0.01267  Uiso   1.00
H29    H     0.85470   0.46910   0.21750   0.01267  Uiso   1.00
H30    H     0.55980   0.64260   0.09880   0.01267  Uiso   1.00
H31    H     0.55850   0.55440   0.17740   0.01267  Uiso   1.00
H32    H     0.65440   0.50010   0.98550   0.01267  Uiso   1.00
H33    H     0.64600   0.41380   0.06280   0.01267  Uiso   1.00
H34    H     0.81650   0.35530   0.84150   0.01267  Uiso   1.00
H35    H     0.90950   0.27940   0.01800   0.01267  Uiso   1.00
H36    H     0.88310   0.11420   0.04700   0.01267  Uiso   1.00
H37    H     0.76630   0.02120   0.89920   0.01267  Uiso   1.00
H38    H     0.66740   0.09710   0.72210   0.01267  Uiso   1.00
H39    H     0.64180   0.13550   0.55250   0.01267  Uiso   1.00
H40    H     0.64530   0.21750   0.46910   0.01267  Uiso   1.00
H41    H     0.94020   0.09880   0.64260   0.01267  Uiso   1.00
H42    H     0.94150   0.17740   0.55440   0.01267  Uiso   1.00
H43    H     0.84560   0.98550   0.50010   0.01267  Uiso   1.00
H44    H     0.85400   0.06280   0.41380   0.01267  Uiso   1.00
C1     C     0.23230   0.23400   0.76660   0.01267  Uiso   1.00
C2     C     0.30490   0.14690   0.71210   0.01267  Uiso   1.00
C3     C     0.36060   0.04200   0.75780   0.01267  Uiso   1.00
C4     C     0.34550   0.02480   0.85560   0.01267  Uiso   1.00
C5     C     0.27500   0.11270   0.91050   0.01267  Uiso   1.00
C6     C     0.21690   0.21790   0.86590   0.01267  Uiso   1.00
C7     C     0.19720   0.45500   0.81220   0.01267  Uiso   1.00
C8     C     0.38530   0.43370   0.87270   0.01267  Uiso   1.00
C9     C     0.40660   0.51010   0.96670   0.01267  Uiso   1.00
C10    C     0.26770   0.76660   0.23400   0.01267  Uiso   1.00
C11    C     0.19510   0.71210   0.14690   0.01267  Uiso   1.00
C12    C     0.13940   0.75780   0.04200   0.01267  Uiso   1.00
C13    C     0.15450   0.85560   0.02480   0.01267  Uiso   1.00
C14    C     0.22500   0.91050   0.11270   0.01267  Uiso   1.00
C15    C     0.28310   0.86590   0.21790   0.01267  Uiso   1.00
C16    C     0.30280   0.81220   0.45500   0.01267  Uiso   1.00
C17    C     0.11470   0.87270   0.43370   0.01267  Uiso   1.00
C18    C     0.09340   0.96670   0.51010   0.01267  Uiso   1.00
C19    C     0.76770   0.76600   0.23340   0.01267  Uiso   1.00
C20    C     0.69510   0.85310   0.28790   0.01267  Uiso   1.00
C21    C     0.63940   0.95800   0.24220   0.01267  Uiso   1.00
C22    C     0.65450   0.97520   0.14440   0.01267  Uiso   1.00
C23    C     0.72500   0.88730   0.08950   0.01267  Uiso   1.00
C24    C     0.78310   0.78210   0.13410   0.01267  Uiso   1.00
C25    C     0.80280   0.54500   0.18780   0.01267  Uiso   1.00
C26    C     0.61470   0.56630   0.12730   0.01267  Uiso   1.00
C27    C     0.59340   0.48990   0.03330   0.01267  Uiso   1.00
C28    C     0.73230   0.23340   0.76600   0.01267  Uiso   1.00
C29    C     0.80490   0.28790   0.85310   0.01267  Uiso   1.00
C30    C     0.86060   0.24220   0.95800   0.01267  Uiso   1.00
C31    C     0.84550   0.14440   0.97520   0.01267  Uiso   1.00
C32    C     0.77500   0.08950   0.88730   0.01267  Uiso   1.00
C33    C     0.71690   0.13410   0.78210   0.01267  Uiso   1.00
C34    C     0.69720   0.18780   0.54500   0.01267  Uiso   1.00
C35    C     0.88530   0.12730   0.56630   0.01267  Uiso   1.00
C36    C     0.90660   0.03330   0.48990   0.01267  Uiso   1.00
S1     S     0.15148   0.36574   0.70170   0.01267  Uiso   1.00
S2     S     0.34852   0.70170   0.36574   0.01267  Uiso   1.00
S3     S     0.84852   0.63426   0.29830   0.01267  Uiso   1.00
S4     S     0.65148   0.29830   0.63426   0.01267  Uiso   1.00
