data_VEFCEQ_clean_h
_audit_creation_date              2014-07-02
_audit_creation_method            'Materials Studio'
_symmetry_space_group_name_H-M    'P1'
_symmetry_Int_Tables_number       1
_symmetry_cell_setting            triclinic
loop_
_symmetry_equiv_pos_as_xyz
  x,y,z
_cell_length_a                    7.6030
_cell_length_b                    14.9910
_cell_length_c                    20.8240
_cell_angle_alpha                 91.3700
_cell_angle_beta                  98.3100
_cell_angle_gamma                 90.6400
loop_
_atom_site_label
_atom_site_type_symbol
_atom_site_fract_x
_atom_site_fract_y
_atom_site_fract_z
_atom_site_U_iso_or_equiv
_atom_site_adp_type
_atom_site_occupancy
Co1    Co    0.44377   0.09927   0.27194   0.01267  Uiso   1.00
Co2    Co    0.47936   0.58481   0.23228   0.01267  Uiso   1.00
Co3    Co    0.55623   0.90073   0.72806   0.01267  Uiso   1.00
Co4    Co    0.52064   0.41519   0.76772   0.01267  Uiso   1.00
Co5    Co    0.50000   0.50000   0.50000   0.01267  Uiso   1.00
W1     W     0.95251   0.84646   0.24418   0.01267  Uiso   1.00
W2     W     0.01657   0.34780   0.28708   0.01267  Uiso   1.00
W3     W     0.04749   0.15354   0.75582   0.01267  Uiso   1.00
W4     W     0.98343   0.65220   0.71292   0.01267  Uiso   1.00
C1     C     0.13867   0.73152   0.22838   0.01267  Uiso   1.00
C2     C     0.13020   0.95971   0.26373   0.01267  Uiso   1.00
C3     C     0.94945   0.92043   0.15009   0.01267  Uiso   1.00
C4     C     0.73571   0.94348   0.24659   0.01267  Uiso   1.00
C5     C     0.72682   0.87773   0.16857   0.01267  Uiso   1.00
C6     C     0.07040   0.85153   0.34168   0.01267  Uiso   1.00
C7     C     0.92809   0.73862   0.16543   0.01267  Uiso   1.00
C8     C     0.74623   0.73769   0.21940   0.01267  Uiso   1.00
C9     C     0.81752   0.23727   0.29159   0.01267  Uiso   1.00
C10    C     0.80125   0.44751   0.25995   0.01267  Uiso   1.00
C11    C     0.24115   0.39442   0.36547   0.01267  Uiso   1.00
C12    C     0.89139   0.35862   0.18285   0.01267  Uiso   1.00
C13    C     0.93574   0.46596   0.34347   0.01267  Uiso   1.00
C14    C     0.23087   0.43086   0.27467   0.01267  Uiso   1.00
C15    C     0.99469   0.28904   0.38319   0.01267  Uiso   1.00
C16    C     0.21172   0.25073   0.28975   0.01267  Uiso   1.00
C17    C     0.48881   0.73125   0.33847   0.01267  Uiso   1.00
C18    C     0.52418   0.58116   0.37203   0.01267  Uiso   1.00
C19    C     0.49253   0.76336   0.39692   0.01267  Uiso   1.00
C20    C     0.50572   0.69936   0.44558   0.01267  Uiso   1.00
C21    C     0.46526   0.96743   0.36878   0.01267  Uiso   1.00
C22    C     0.59182   0.96985   0.47110   0.01267  Uiso   1.00
C23    C     0.62809   0.06210   0.46594   0.01267  Uiso   1.00
C24    C     0.57950   0.10725   0.40797   0.01267  Uiso   1.00
C25    C     0.50433   0.92560   0.42220   0.01267  Uiso   1.00
C26    C     0.65852   0.91262   0.53155   0.01267  Uiso   1.00
C27    C     0.55467   0.44806   0.13085   0.01267  Uiso   1.00
C28    C     0.37181   0.39448   0.03619   0.01267  Uiso   1.00
C29    C     0.24631   0.46184   0.04102   0.01267  Uiso   1.00
C30    C     0.27340   0.52284   0.09466   0.01267  Uiso   1.00
C31    C     0.52555   0.39112   0.08249   0.01267  Uiso   1.00
C32    C     0.32692   0.33173   0.98163   0.01267  Uiso   1.00
C33    C     0.86133   0.26848   0.77162   0.01267  Uiso   1.00
C34    C     0.86980   0.04029   0.73627   0.01267  Uiso   1.00
C35    C     0.05055   0.07957   0.84991   0.01267  Uiso   1.00
C36    C     0.26429   0.05652   0.75341   0.01267  Uiso   1.00
C37    C     0.27318   0.12227   0.83143   0.01267  Uiso   1.00
C38    C     0.92960   0.14847   0.65832   0.01267  Uiso   1.00
C39    C     0.07191   0.26138   0.83457   0.01267  Uiso   1.00
C40    C     0.25377   0.26231   0.78060   0.01267  Uiso   1.00
C41    C     0.18248   0.76273   0.70841   0.01267  Uiso   1.00
C42    C     0.19875   0.55249   0.74005   0.01267  Uiso   1.00
C43    C     0.75885   0.60558   0.63453   0.01267  Uiso   1.00
C44    C     0.10861   0.64138   0.81715   0.01267  Uiso   1.00
C45    C     0.06426   0.53404   0.65653   0.01267  Uiso   1.00
C46    C     0.76913   0.56914   0.72533   0.01267  Uiso   1.00
C47    C     0.00531   0.71096   0.61681   0.01267  Uiso   1.00
C48    C     0.78828   0.74927   0.71025   0.01267  Uiso   1.00
C49    C     0.51119   0.26875   0.66153   0.01267  Uiso   1.00
C50    C     0.47582   0.41884   0.62797   0.01267  Uiso   1.00
C51    C     0.50747   0.23664   0.60308   0.01267  Uiso   1.00
C52    C     0.49428   0.30064   0.55442   0.01267  Uiso   1.00
C53    C     0.53474   0.03257   0.63122   0.01267  Uiso   1.00
C54    C     0.40818   0.03015   0.52890   0.01267  Uiso   1.00
C55    C     0.37191   0.93790   0.53406   0.01267  Uiso   1.00
C56    C     0.42050   0.89275   0.59203   0.01267  Uiso   1.00
C57    C     0.49567   0.07440   0.57780   0.01267  Uiso   1.00
C58    C     0.34148   0.08738   0.46845   0.01267  Uiso   1.00
C59    C     0.44533   0.55194   0.86915   0.01267  Uiso   1.00
C60    C     0.62819   0.60552   0.96381   0.01267  Uiso   1.00
C61    C     0.75369   0.53816   0.95898   0.01267  Uiso   1.00
C62    C     0.72660   0.47716   0.90534   0.01267  Uiso   1.00
C63    C     0.47445   0.60888   0.91751   0.01267  Uiso   1.00
C64    C     0.67308   0.66827   0.01837   0.01267  Uiso   1.00
N1     N     0.23201   0.66900   0.21491   0.01267  Uiso   1.00
N2     N     0.21600   0.01887   0.26931   0.01267  Uiso   1.00
N3     N     0.93363   0.95934   0.09872   0.01267  Uiso   1.00
N4     N     0.61882   0.98751   0.24573   0.01267  Uiso   1.00
N5     N     0.61517   0.89895   0.13331   0.01267  Uiso   1.00
N6     N     0.12008   0.85238   0.39311   0.01267  Uiso   1.00
N7     N     0.91137   0.67602   0.12654   0.01267  Uiso   1.00
N8     N     0.64123   0.67735   0.20190   0.01267  Uiso   1.00
N9     N     0.70121   0.18013   0.29346   0.01267  Uiso   1.00
N10    N     0.68916   0.50387   0.25018   0.01267  Uiso   1.00
N11    N     0.35224   0.42029   0.41087   0.01267  Uiso   1.00
N12    N     0.83614   0.36146   0.12599   0.01267  Uiso   1.00
N13    N     0.88347   0.53093   0.36956   0.01267  Uiso   1.00
N14    N     0.33382   0.47869   0.26736   0.01267  Uiso   1.00
N15    N     0.98270   0.25097   0.43274   0.01267  Uiso   1.00
N16    N     0.31628   0.20239   0.29552   0.01267  Uiso   1.00
N17    N     0.51733   0.60772   0.43083   0.01267  Uiso   1.00
N18    N     0.50635   0.63849   0.32760   0.01267  Uiso   1.00
N19    N     0.50332   0.05854   0.36039   0.01267  Uiso   1.00
N20    N     0.42788   0.51390   0.14093   0.01267  Uiso   1.00
N21    N     0.76799   0.33100   0.78509   0.01267  Uiso   1.00
N22    N     0.78400   0.98113   0.73069   0.01267  Uiso   1.00
N23    N     0.06637   0.04066   0.90128   0.01267  Uiso   1.00
N24    N     0.38118   0.01249   0.75427   0.01267  Uiso   1.00
N25    N     0.38483   0.10105   0.86669   0.01267  Uiso   1.00
N26    N     0.87992   0.14762   0.60689   0.01267  Uiso   1.00
N27    N     0.08863   0.32398   0.87346   0.01267  Uiso   1.00
N28    N     0.35877   0.32265   0.79810   0.01267  Uiso   1.00
N29    N     0.29879   0.81987   0.70654   0.01267  Uiso   1.00
N30    N     0.31084   0.49613   0.74982   0.01267  Uiso   1.00
N31    N     0.64776   0.57971   0.58913   0.01267  Uiso   1.00
N32    N     0.16386   0.63854   0.87401   0.01267  Uiso   1.00
N33    N     0.11653   0.46907   0.63044   0.01267  Uiso   1.00
N34    N     0.66618   0.52131   0.73264   0.01267  Uiso   1.00
N35    N     0.01730   0.74903   0.56726   0.01267  Uiso   1.00
N36    N     0.68372   0.79761   0.70448   0.01267  Uiso   1.00
N37    N     0.48267   0.39228   0.56917   0.01267  Uiso   1.00
N38    N     0.49365   0.36151   0.67240   0.01267  Uiso   1.00
N39    N     0.49668   0.94146   0.63961   0.01267  Uiso   1.00
N40    N     0.57212   0.48610   0.85907   0.01267  Uiso   1.00
H1     H     0.05238   0.78932   0.24083   0.01267  Uiso   1.00
H2     H     0.47136   0.77777   0.29557   0.01267  Uiso   1.00
H3     H     0.54583   0.50766   0.36072   0.01267  Uiso   1.00
H4     H     0.48527   0.83849   0.40573   0.01267  Uiso   1.00
H5     H     0.50720   0.72126   0.49846   0.01267  Uiso   1.00
H6     H     0.39453   0.93066   0.32363   0.01267  Uiso   1.00
H7     H     0.69875   0.10185   0.50971   0.01267  Uiso   1.00
H8     H     0.60861   0.18180   0.40588   0.01267  Uiso   1.00
H9     H     0.46210   0.85276   0.42500   0.01267  Uiso   1.00
H10    H     0.80989   0.91027   0.53866   0.01267  Uiso   1.00
H11    H     0.60138   0.84196   0.52335   0.01267  Uiso   1.00
H12    H     0.61282   0.94399   0.57662   0.01267  Uiso   1.00
H13    H     0.68384   0.44581   0.16617   0.01267  Uiso   1.00
H14    H     0.12512   0.46667   0.00210   0.01267  Uiso   1.00
H15    H     0.17232   0.57723   0.09970   0.01267  Uiso   1.00
H16    H     0.62591   0.33662   0.07675   0.01267  Uiso   1.00
H17    H     0.38290   0.26347   0.99546   0.01267  Uiso   1.00
H18    H     0.38649   0.35650   0.93801   0.01267  Uiso   1.00
H19    H     0.17624   0.32611   0.96873   0.01267  Uiso   1.00
H20    H     0.94762   0.21068   0.75917   0.01267  Uiso   1.00
H21    H     0.52864   0.22223   0.70443   0.01267  Uiso   1.00
H22    H     0.45417   0.49234   0.63928   0.01267  Uiso   1.00
H23    H     0.51473   0.16151   0.59427   0.01267  Uiso   1.00
H24    H     0.49280   0.27874   0.50154   0.01267  Uiso   1.00
H25    H     0.60547   0.06934   0.67637   0.01267  Uiso   1.00
H26    H     0.30125   0.89815   0.49029   0.01267  Uiso   1.00
H27    H     0.39139   0.81820   0.59412   0.01267  Uiso   1.00
H28    H     0.53790   0.14724   0.57500   0.01267  Uiso   1.00
H29    H     0.25198   0.04448   0.43093   0.01267  Uiso   1.00
H30    H     0.46050   0.11279   0.44624   0.01267  Uiso   1.00
H31    H     0.26342   0.14651   0.48420   0.01267  Uiso   1.00
H32    H     0.31616   0.55419   0.83383   0.01267  Uiso   1.00
H33    H     0.87488   0.53333   0.99790   0.01267  Uiso   1.00
H34    H     0.82768   0.42277   0.90030   0.01267  Uiso   1.00
H35    H     0.37164   0.66261   0.92194   0.01267  Uiso   1.00
H36    H     0.75608   0.72578   0.00321   0.01267  Uiso   1.00
H37    H     0.75248   0.63275   0.06066   0.01267  Uiso   1.00
H38    H     0.54582   0.69539   0.03393   0.01267  Uiso   1.00
