data_VEWKUF_clean
_audit_creation_date              2014-07-02
_audit_creation_method            'Materials Studio'
_symmetry_space_group_name_H-M    'P1'
_symmetry_Int_Tables_number       1
_symmetry_cell_setting            triclinic
loop_
_symmetry_equiv_pos_as_xyz
  x,y,z
_cell_length_a                    20.6536
_cell_length_b                    20.7926
_cell_length_c                    33.4974
_cell_angle_alpha                 90.0000
_cell_angle_beta                  90.0000
_cell_angle_gamma                 118.6190
loop_
_atom_site_label
_atom_site_type_symbol
_atom_site_fract_x
_atom_site_fract_y
_atom_site_fract_z
_atom_site_U_iso_or_equiv
_atom_site_adp_type
_atom_site_occupancy
Zn1    Zn    0.65136   0.80815   0.00194   0.01267  Uiso   1.00
Zn2    Zn    0.84797   0.19625   0.93903   0.01267  Uiso   1.00
Zn3    Zn    0.74727   0.00521   0.97003   0.01267  Uiso   1.00
Zn4    Zn    0.34864   0.19185   0.50194   0.01267  Uiso   1.00
Zn5    Zn    0.15203   0.80375   0.43903   0.01267  Uiso   1.00
Zn6    Zn    0.25273   0.99479   0.47003   0.01267  Uiso   1.00
C1     C     0.79040   0.14410   0.01350   0.01267  Uiso   1.00
C2     C     0.79120   0.14440   0.05910   0.01267  Uiso   1.00
C3     C     0.85050   0.20040   0.08000   0.01267  Uiso   1.00
C4     C     0.85450   0.19900   0.11910   0.01267  Uiso   1.00
C5     C     0.79850   0.14450   0.14220   0.01267  Uiso   1.00
C6     C     0.74300   0.08980   0.12260   0.01267  Uiso   1.00
C7     C     0.73830   0.09010   0.08010   0.01267  Uiso   1.00
C8     C     0.28490   0.91100   0.40830   0.01267  Uiso   1.00
C9     C     0.36040   0.94170   0.39250   0.01267  Uiso   1.00
C10    C     0.38750   0.89380   0.38670   0.01267  Uiso   1.00
C11    C     0.46810   0.92810   0.37480   0.01267  Uiso   1.00
C12    C     0.50530   0.00020   0.36470   0.01267  Uiso   1.00
C13    C     0.47350   0.04330   0.36930   0.01267  Uiso   1.00
C14    C     0.40140   0.01450   0.38350   0.01267  Uiso   1.00
C15    C     0.29940   0.14080   0.42460   0.01267  Uiso   1.00
C16    C     0.30520   0.14170   0.38280   0.01267  Uiso   1.00
C17    C     0.24460   0.08720   0.35860   0.01267  Uiso   1.00
C18    C     0.24630   0.08650   0.31850   0.01267  Uiso   1.00
C19    C     0.31090   0.14320   0.29800   0.01267  Uiso   1.00
C20    C     0.36790   0.19280   0.32030   0.01267  Uiso   1.00
C21    C     0.36300   0.19350   0.36350   0.01267  Uiso   1.00
C22    C     0.78010   0.91940   0.03540   0.01267  Uiso   1.00
C23    C     0.85550   0.94960   0.05140   0.01267  Uiso   1.00
C24    C     0.89160   0.90540   0.05740   0.01267  Uiso   1.00
C25    C     0.96050   0.93210   0.07180   0.01267  Uiso   1.00
C26    C     0.00320   0.00960   0.07840   0.01267  Uiso   1.00
C27    C     0.96830   0.05330   0.07510   0.01267  Uiso   1.00
C28    C     0.89490   0.02510   0.06160   0.01267  Uiso   1.00
C29    C     0.07970   0.04310   0.09040   0.01267  Uiso   1.00
C30    C     0.12490   0.01570   0.07420   0.01267  Uiso   1.00
C31    C     0.20140   0.04980   0.08520   0.01267  Uiso   1.00
C32    C     0.23110   0.11030   0.11059   0.01267  Uiso   1.00
C33    C     0.18630   0.13360   0.12880   0.01267  Uiso   1.00
C34    C     0.11200   0.09870   0.11860   0.01267  Uiso   1.00
C35    C     0.80460   0.14550   0.18610   0.01267  Uiso   1.00
C36    C     0.83530   0.21030   0.20990   0.01267  Uiso   1.00
C37    C     0.84430   0.21140   0.24780   0.01267  Uiso   1.00
C38    C     0.81490   0.14570   0.27100   0.01267  Uiso   1.00
C39    C     0.77910   0.07930   0.24940   0.01267  Uiso   1.00
C40    C     0.77690   0.07890   0.20770   0.01267  Uiso   1.00
C41    C     0.85340   0.22170   0.33340   0.01267  Uiso   1.00
C42    C     0.92340   0.26190   0.33100   0.01267  Uiso   1.00
C43    C     0.96290   0.33750   0.34580   0.01267  Uiso   1.00
C44    C     0.92110   0.36510   0.36460   0.01267  Uiso   1.00
C45    C     0.84730   0.32130   0.36960   0.01267  Uiso   1.00
C46    C     0.81130   0.24950   0.35490   0.01267  Uiso   1.00
C47    C     0.73450   0.09940   0.33070   0.01267  Uiso   1.00
C48    C     0.68460   0.12330   0.31300   0.01267  Uiso   1.00
C49    C     0.70700   0.04290   0.35410   0.01267  Uiso   1.00
C50    C     0.31310   0.14940   0.12280   0.01267  Uiso   1.00
C51    C     0.35240   0.10920   0.10580   0.01267  Uiso   1.00
C52    C     0.36740   0.11220   0.06390   0.01267  Uiso   1.00
C53    C     0.40290   0.07590   0.04780   0.01267  Uiso   1.00
C54    C     0.42480   0.03650   0.06930   0.01267  Uiso   1.00
C55    C     0.41280   0.02980   0.11220   0.01267  Uiso   1.00
C56    C     0.37470   0.06380   0.12810   0.01267  Uiso   1.00
C57    C     0.35400   0.22700   0.10460   0.01267  Uiso   1.00
C58    C     0.32240   0.26100   0.08790   0.01267  Uiso   1.00
C59    C     0.36250   0.33300   0.07340   0.01267  Uiso   1.00
C60    C     0.43950   0.37190   0.07620   0.01267  Uiso   1.00
C61    C     0.47440   0.33600   0.09430   0.01267  Uiso   1.00
C62    C     0.43340   0.26640   0.11060   0.01267  Uiso   1.00
C63    C     0.48410   0.44390   0.05930   0.01267  Uiso   1.00
C64    C     0.45270   0.49460   0.05970   0.01267  Uiso   1.00
C65    C     0.49870   0.56680   0.04420   0.01267  Uiso   1.00
C66    C     0.56760   0.58490   0.03080   0.01267  Uiso   1.00
C67    C     0.59550   0.53840   0.02970   0.01267  Uiso   1.00
C68    C     0.55170   0.46690   0.04490   0.01267  Uiso   1.00
C69    C     0.31300   0.14360   0.25350   0.01267  Uiso   1.00
C70    C     0.27060   0.08060   0.22760   0.01267  Uiso   1.00
C71    C     0.35430   0.20940   0.23310   0.01267  Uiso   1.00
C72    C     0.58200   0.02980   0.35020   0.01267  Uiso   1.00
C73    C     0.60870   0.08860   0.32290   0.01267  Uiso   1.00
C74    C     0.63270   0.00710   0.36640   0.01267  Uiso   1.00
C75    C     0.81680   0.14440   0.31700   0.01267  Uiso   1.00
C76    C     0.85800   0.10520   0.33420   0.01267  Uiso   1.00
C77    C     0.87040   0.10840   0.37420   0.01267  Uiso   1.00
C78    C     0.90730   0.07480   0.39220   0.01267  Uiso   1.00
C79    C     0.93750   0.04080   0.36830   0.01267  Uiso   1.00
C80    C     0.92830   0.04110   0.32870   0.01267  Uiso   1.00
C81    C     0.89190   0.07590   0.30960   0.01267  Uiso   1.00
C82    C     0.97580   0.00210   0.38580   0.01267  Uiso   1.00
C83    C     0.97620   0.94300   0.36800   0.01267  Uiso   1.00
C84    C     0.46680   0.00060   0.05110   0.01267  Uiso   1.00
C85    C     0.45860   0.93370   0.06480   0.01267  Uiso   1.00
C86    C     0.31580   0.14850   0.16830   0.01267  Uiso   1.00
C87    C     0.35450   0.21090   0.19070   0.01267  Uiso   1.00
C88    C     0.27420   0.08180   0.19110   0.01267  Uiso   1.00
C89    C     0.59200   0.90500   0.00250   0.01267  Uiso   1.00
C90    C     0.49600   0.90270   0.05040   0.01267  Uiso   1.00
C91    C     0.54580   0.93650   0.01780   0.01267  Uiso   1.00
C92    C     0.55510   0.00300   0.00280   0.01267  Uiso   1.00
C93    C     0.51410   0.03260   0.02030   0.01267  Uiso   1.00
C94    C     0.10000   0.90440   0.43870   0.01267  Uiso   1.00
C95    C     0.01740   0.91100   0.38350   0.01267  Uiso   1.00
C96    C     0.05760   0.93740   0.41860   0.01267  Uiso   1.00
C97    C     0.05820   0.99990   0.43810   0.01267  Uiso   1.00
C98    C     0.01610   0.02940   0.42220   0.01267  Uiso   1.00
C99    C     0.95370   0.43660   0.38450   0.01267  Uiso   1.00
C100   C     0.92070   0.44770   0.41810   0.01267  Uiso   1.00
C101   C     0.94900   0.51730   0.43460   0.01267  Uiso   1.00
C102   C     0.01040   0.57580   0.41760   0.01267  Uiso   1.00
C103   C     0.04330   0.56470   0.38410   0.01267  Uiso   1.00
C104   C     0.01500   0.49510   0.36750   0.01267  Uiso   1.00
C105   C     0.61680   0.66960   0.01710   0.01267  Uiso   1.00
C106   C     0.04860   0.65650   0.43300   0.01267  Uiso   1.00
C107   C     0.20960   0.85590   0.51350   0.01267  Uiso   1.00
C108   C     0.20880   0.85560   0.55910   0.01267  Uiso   1.00
C109   C     0.14950   0.79960   0.58000   0.01267  Uiso   1.00
C110   C     0.14550   0.80100   0.61910   0.01267  Uiso   1.00
C111   C     0.20150   0.85550   0.64220   0.01267  Uiso   1.00
C112   C     0.25700   0.91020   0.62260   0.01267  Uiso   1.00
C113   C     0.26170   0.90990   0.58010   0.01267  Uiso   1.00
C114   C     0.71510   0.08900   0.90830   0.01267  Uiso   1.00
C115   C     0.63960   0.05830   0.89250   0.01267  Uiso   1.00
C116   C     0.61250   0.10620   0.88670   0.01267  Uiso   1.00
C117   C     0.53190   0.07190   0.87480   0.01267  Uiso   1.00
C118   C     0.49470   0.99980   0.86470   0.01267  Uiso   1.00
C119   C     0.52650   0.95670   0.86930   0.01267  Uiso   1.00
C120   C     0.59860   0.98550   0.88350   0.01267  Uiso   1.00
C121   C     0.70060   0.85920   0.92460   0.01267  Uiso   1.00
C122   C     0.69480   0.85830   0.88280   0.01267  Uiso   1.00
C123   C     0.75540   0.91280   0.85860   0.01267  Uiso   1.00
C124   C     0.75370   0.91350   0.81850   0.01267  Uiso   1.00
C125   C     0.68910   0.85680   0.79800   0.01267  Uiso   1.00
C126   C     0.63210   0.80720   0.82030   0.01267  Uiso   1.00
C127   C     0.63700   0.80650   0.86350   0.01267  Uiso   1.00
C128   C     0.21990   0.08060   0.53540   0.01267  Uiso   1.00
C129   C     0.14450   0.05040   0.55140   0.01267  Uiso   1.00
C130   C     0.10840   0.09460   0.55740   0.01267  Uiso   1.00
C131   C     0.03950   0.06790   0.57180   0.01267  Uiso   1.00
C132   C     0.99680   0.99040   0.57840   0.01267  Uiso   1.00
C133   C     0.03170   0.94670   0.57510   0.01267  Uiso   1.00
C134   C     0.10510   0.97490   0.56160   0.01267  Uiso   1.00
C135   C     0.92030   0.95690   0.59040   0.01267  Uiso   1.00
C136   C     0.87510   0.98430   0.57420   0.01267  Uiso   1.00
C137   C     0.79860   0.95020   0.58520   0.01267  Uiso   1.00
C138   C     0.76890   0.88970   0.61059   0.01267  Uiso   1.00
C139   C     0.81370   0.86640   0.62880   0.01267  Uiso   1.00
C140   C     0.88800   0.90130   0.61860   0.01267  Uiso   1.00
C141   C     0.19540   0.85450   0.68610   0.01267  Uiso   1.00
C142   C     0.16470   0.78970   0.70990   0.01267  Uiso   1.00
C143   C     0.15570   0.78860   0.74780   0.01267  Uiso   1.00
C144   C     0.18510   0.85430   0.77100   0.01267  Uiso   1.00
C145   C     0.22090   0.92070   0.74940   0.01267  Uiso   1.00
C146   C     0.22310   0.92110   0.70770   0.01267  Uiso   1.00
C147   C     0.14660   0.77830   0.83340   0.01267  Uiso   1.00
C148   C     0.07660   0.73810   0.83100   0.01267  Uiso   1.00
C149   C     0.03710   0.66250   0.84580   0.01267  Uiso   1.00
C150   C     0.07890   0.63490   0.86460   0.01267  Uiso   1.00
C151   C     0.15270   0.67870   0.86960   0.01267  Uiso   1.00
C152   C     0.18870   0.75050   0.85490   0.01267  Uiso   1.00
C153   C     0.26550   0.90060   0.83070   0.01267  Uiso   1.00
C154   C     0.31540   0.87670   0.81300   0.01267  Uiso   1.00
C155   C     0.29300   0.95710   0.85410   0.01267  Uiso   1.00
C156   C     0.68690   0.85060   0.62280   0.01267  Uiso   1.00
C157   C     0.64760   0.89080   0.60580   0.01267  Uiso   1.00
C158   C     0.63260   0.88780   0.56390   0.01267  Uiso   1.00
C159   C     0.59710   0.92410   0.54780   0.01267  Uiso   1.00
C160   C     0.57520   0.96350   0.56930   0.01267  Uiso   1.00
C161   C     0.58720   0.97020   0.61220   0.01267  Uiso   1.00
C162   C     0.62530   0.93620   0.62810   0.01267  Uiso   1.00
C163   C     0.64600   0.77300   0.60460   0.01267  Uiso   1.00
C164   C     0.67760   0.73900   0.58790   0.01267  Uiso   1.00
C165   C     0.63750   0.66700   0.57340   0.01267  Uiso   1.00
C166   C     0.56050   0.62810   0.57620   0.01267  Uiso   1.00
C167   C     0.52560   0.66400   0.59430   0.01267  Uiso   1.00
C168   C     0.56660   0.73360   0.61060   0.01267  Uiso   1.00
C169   C     0.51590   0.55610   0.55930   0.01267  Uiso   1.00
C170   C     0.54730   0.50540   0.55970   0.01267  Uiso   1.00
C171   C     0.50130   0.43320   0.54420   0.01267  Uiso   1.00
C172   C     0.43240   0.41510   0.53080   0.01267  Uiso   1.00
C173   C     0.40450   0.46160   0.52970   0.01267  Uiso   1.00
C174   C     0.44830   0.53310   0.54490   0.01267  Uiso   1.00
C175   C     0.68700   0.85640   0.75350   0.01267  Uiso   1.00
C176   C     0.72940   0.91940   0.72760   0.01267  Uiso   1.00
C177   C     0.64570   0.79060   0.73310   0.01267  Uiso   1.00
C178   C     0.41800   0.97020   0.85020   0.01267  Uiso   1.00
C179   C     0.39130   0.91140   0.82290   0.01267  Uiso   1.00
C180   C     0.36730   0.99290   0.86640   0.01267  Uiso   1.00
C181   C     0.18320   0.85560   0.81700   0.01267  Uiso   1.00
C182   C     0.14200   0.89480   0.83420   0.01267  Uiso   1.00
C183   C     0.12960   0.89160   0.87420   0.01267  Uiso   1.00
C184   C     0.09270   0.92520   0.89220   0.01267  Uiso   1.00
C185   C     0.06250   0.95920   0.86830   0.01267  Uiso   1.00
C186   C     0.07170   0.95890   0.82870   0.01267  Uiso   1.00
C187   C     0.10810   0.92410   0.80960   0.01267  Uiso   1.00
C188   C     0.02420   0.99790   0.88580   0.01267  Uiso   1.00
C189   C     0.02380   0.05700   0.86800   0.01267  Uiso   1.00
C190   C     0.53320   0.99940   0.55110   0.01267  Uiso   1.00
C191   C     0.54140   0.06630   0.56480   0.01267  Uiso   1.00
C192   C     0.68420   0.85150   0.66830   0.01267  Uiso   1.00
C193   C     0.64550   0.78910   0.69070   0.01267  Uiso   1.00
C194   C     0.72580   0.91820   0.69110   0.01267  Uiso   1.00
C195   C     0.40800   0.09500   0.50250   0.01267  Uiso   1.00
C196   C     0.50400   0.09730   0.55040   0.01267  Uiso   1.00
C197   C     0.45420   0.06350   0.51780   0.01267  Uiso   1.00
C198   C     0.44490   0.99700   0.50280   0.01267  Uiso   1.00
C199   C     0.48590   0.96740   0.52030   0.01267  Uiso   1.00
C200   C     0.90000   0.09560   0.93870   0.01267  Uiso   1.00
C201   C     0.98260   0.08900   0.88350   0.01267  Uiso   1.00
C202   C     0.94240   0.06260   0.91860   0.01267  Uiso   1.00
C203   C     0.94180   0.00010   0.93810   0.01267  Uiso   1.00
C204   C     0.98390   0.97060   0.92220   0.01267  Uiso   1.00
C205   C     0.04630   0.56340   0.88450   0.01267  Uiso   1.00
C206   C     0.07930   0.55230   0.91810   0.01267  Uiso   1.00
C207   C     0.05100   0.48270   0.93460   0.01267  Uiso   1.00
C208   C     0.98960   0.42420   0.91760   0.01267  Uiso   1.00
C209   C     0.95670   0.43530   0.88410   0.01267  Uiso   1.00
C210   C     0.98500   0.50490   0.86750   0.01267  Uiso   1.00
C211   C     0.38320   0.33040   0.51710   0.01267  Uiso   1.00
C212   C     0.95140   0.34350   0.93300   0.01267  Uiso   1.00
O1     O     0.34910   0.19840   0.44547   0.01267  Uiso   1.00
O2     O     0.24890   0.08550   0.44310   0.01267  Uiso   1.00
O3     O     0.24540   0.84170   0.41080   0.01267  Uiso   1.00
O4     O     0.26060   0.95610   0.41646   0.01267  Uiso   1.00
O5     O     0.14060   0.93650   0.46606   0.01267  Uiso   1.00
O6     O     0.09210   0.84530   0.42038   0.01267  Uiso   1.00
O7     O     0.58720   0.84870   0.01788   0.01267  Uiso   1.00
O8     O     0.63610   0.93970   0.97509   0.01267  Uiso   1.00
O9     O     0.74230   0.08790   0.99757   0.01267  Uiso   1.00
O10    O     0.83760   0.20080   0.99609   0.01267  Uiso   1.00
O11    O     0.74290   0.84950   0.03201   0.01267  Uiso   1.00
O12    O     0.75740   0.96430   0.02565   0.01267  Uiso   1.00
O13    O     0.10470   0.70540   0.41906   0.01267  Uiso   1.00
O14    O     0.59160   0.70880   0.02244   0.01267  Uiso   1.00
O15    O     0.67310   0.68150   0.99853   0.01267  Uiso   1.00
O16    O     0.01350   0.66810   0.46460   0.01267  Uiso   1.00
O17    O     0.65090   0.80160   0.94547   0.01267  Uiso   1.00
O18    O     0.75110   0.91450   0.94310   0.01267  Uiso   1.00
O19    O     0.75460   0.15830   0.91080   0.01267  Uiso   1.00
O20    O     0.73940   0.04390   0.91646   0.01267  Uiso   1.00
O21    O     0.85940   0.06350   0.96606   0.01267  Uiso   1.00
O22    O     0.90790   0.15470   0.92038   0.01267  Uiso   1.00
O23    O     0.41280   0.15130   0.51788   0.01267  Uiso   1.00
O24    O     0.36390   0.06030   0.47509   0.01267  Uiso   1.00
O25    O     0.25770   0.91210   0.49757   0.01267  Uiso   1.00
O26    O     0.16240   0.79920   0.49609   0.01267  Uiso   1.00
O27    O     0.25710   0.15050   0.53201   0.01267  Uiso   1.00
O28    O     0.24260   0.03570   0.52565   0.01267  Uiso   1.00
O29    O     0.89530   0.29460   0.91906   0.01267  Uiso   1.00
O30    O     0.40840   0.29120   0.52244   0.01267  Uiso   1.00
O31    O     0.32690   0.31850   0.49853   0.01267  Uiso   1.00
O32    O     0.98650   0.33190   0.96460   0.01267  Uiso   1.00
