data_VEXTUO_clean
_audit_creation_date              2014-07-02
_audit_creation_method            'Materials Studio'
_symmetry_space_group_name_H-M    'P1'
_symmetry_Int_Tables_number       1
_symmetry_cell_setting            triclinic
loop_
_symmetry_equiv_pos_as_xyz
  x,y,z
_cell_length_a                    18.8523
_cell_length_b                    18.8523
_cell_length_c                    18.8523
_cell_angle_alpha                 60.5177
_cell_angle_beta                  60.5177
_cell_angle_gamma                 60.5177
loop_
_atom_site_label
_atom_site_type_symbol
_atom_site_fract_x
_atom_site_fract_y
_atom_site_fract_z
_atom_site_U_iso_or_equiv
_atom_site_adp_type
_atom_site_occupancy
Ni1    Ni    0.35433   0.25000   0.14567   0.01267  Uiso   1.00
Ni2    Ni    0.14567   0.35433   0.25000   0.01267  Uiso   1.00
Ni3    Ni    0.25000   0.14567   0.35433   0.01267  Uiso   1.00
Ni4    Ni    0.64567   0.75000   0.85433   0.01267  Uiso   1.00
Ni5    Ni    0.85433   0.64567   0.75000   0.01267  Uiso   1.00
Ni6    Ni    0.75000   0.85433   0.64567   0.01267  Uiso   1.00
H1     H     0.74140   0.30910   0.85500   0.01267  Uiso   1.00
H2     H     0.79520   0.41700   0.81180   0.01267  Uiso   1.00
H3     H     0.55250   0.57690   0.88470   0.01267  Uiso   1.00
H4     H     0.49770   0.47240   0.92460   0.01267  Uiso   1.00
H5     H     0.48520   0.34220   0.03580   0.01267  Uiso   1.00
H6     H     0.85500   0.74140   0.30910   0.01267  Uiso   1.00
H7     H     0.81180   0.79520   0.41700   0.01267  Uiso   1.00
H8     H     0.88470   0.55250   0.57690   0.01267  Uiso   1.00
H9     H     0.92460   0.49770   0.47240   0.01267  Uiso   1.00
H10    H     0.03580   0.48520   0.34220   0.01267  Uiso   1.00
H11    H     0.30910   0.85500   0.74140   0.01267  Uiso   1.00
H12    H     0.41700   0.81180   0.79520   0.01267  Uiso   1.00
H13    H     0.57690   0.88470   0.55250   0.01267  Uiso   1.00
H14    H     0.47240   0.92460   0.49770   0.01267  Uiso   1.00
H15    H     0.34220   0.03580   0.48520   0.01267  Uiso   1.00
H16    H     0.19090   0.75860   0.64500   0.01267  Uiso   1.00
H17    H     0.08300   0.70480   0.68820   0.01267  Uiso   1.00
H18    H     0.92310   0.94750   0.61530   0.01267  Uiso   1.00
H19    H     0.02760   0.00230   0.57540   0.01267  Uiso   1.00
H20    H     0.15780   0.01480   0.46420   0.01267  Uiso   1.00
H21    H     0.75860   0.64500   0.19090   0.01267  Uiso   1.00
H22    H     0.70480   0.68820   0.08300   0.01267  Uiso   1.00
H23    H     0.94750   0.61530   0.92310   0.01267  Uiso   1.00
H24    H     0.00230   0.57540   0.02760   0.01267  Uiso   1.00
H25    H     0.01480   0.46420   0.15780   0.01267  Uiso   1.00
H26    H     0.64500   0.19090   0.75860   0.01267  Uiso   1.00
H27    H     0.68820   0.08300   0.70480   0.01267  Uiso   1.00
H28    H     0.61530   0.92310   0.94750   0.01267  Uiso   1.00
H29    H     0.57540   0.02760   0.00230   0.01267  Uiso   1.00
H30    H     0.46420   0.15780   0.01480   0.01267  Uiso   1.00
H31    H     0.25860   0.69090   0.14500   0.01267  Uiso   1.00
H32    H     0.20480   0.58300   0.18820   0.01267  Uiso   1.00
H33    H     0.44750   0.42310   0.11530   0.01267  Uiso   1.00
H34    H     0.50230   0.52760   0.07540   0.01267  Uiso   1.00
H35    H     0.51480   0.65780   0.96420   0.01267  Uiso   1.00
H36    H     0.14500   0.25860   0.69090   0.01267  Uiso   1.00
H37    H     0.18820   0.20480   0.58300   0.01267  Uiso   1.00
H38    H     0.11530   0.44750   0.42310   0.01267  Uiso   1.00
H39    H     0.07540   0.50230   0.52760   0.01267  Uiso   1.00
H40    H     0.96420   0.51480   0.65780   0.01267  Uiso   1.00
H41    H     0.69090   0.14500   0.25860   0.01267  Uiso   1.00
H42    H     0.58300   0.18820   0.20480   0.01267  Uiso   1.00
H43    H     0.42310   0.11530   0.44750   0.01267  Uiso   1.00
H44    H     0.52760   0.07540   0.50230   0.01267  Uiso   1.00
H45    H     0.65780   0.96420   0.51480   0.01267  Uiso   1.00
H46    H     0.80910   0.24140   0.35500   0.01267  Uiso   1.00
H47    H     0.91700   0.29520   0.31180   0.01267  Uiso   1.00
H48    H     0.07690   0.05250   0.38470   0.01267  Uiso   1.00
H49    H     0.97240   0.99770   0.42460   0.01267  Uiso   1.00
H50    H     0.84220   0.98520   0.53580   0.01267  Uiso   1.00
H51    H     0.24140   0.35500   0.80910   0.01267  Uiso   1.00
H52    H     0.29520   0.31180   0.91700   0.01267  Uiso   1.00
H53    H     0.05250   0.38470   0.07690   0.01267  Uiso   1.00
H54    H     0.99770   0.42460   0.97240   0.01267  Uiso   1.00
H55    H     0.98520   0.53580   0.84220   0.01267  Uiso   1.00
H56    H     0.35500   0.80910   0.24140   0.01267  Uiso   1.00
H57    H     0.31180   0.91700   0.29520   0.01267  Uiso   1.00
H58    H     0.38470   0.07690   0.05250   0.01267  Uiso   1.00
H59    H     0.42460   0.97240   0.99770   0.01267  Uiso   1.00
H60    H     0.53580   0.84220   0.98520   0.01267  Uiso   1.00
H61    H     0.66040   0.25000   0.83960   0.01267  Uiso   1.00
H62    H     0.83960   0.66040   0.25000   0.01267  Uiso   1.00
H63    H     0.25000   0.83960   0.66040   0.01267  Uiso   1.00
H64    H     0.33960   0.75000   0.16040   0.01267  Uiso   1.00
H65    H     0.16040   0.33960   0.75000   0.01267  Uiso   1.00
H66    H     0.75000   0.16040   0.33960   0.01267  Uiso   1.00
C1     C     0.70280   0.36360   0.86160   0.01267  Uiso   1.00
C2     C     0.73494   0.42634   0.84034   0.01267  Uiso   1.00
C3     C     0.59081   0.52071   0.88311   0.01267  Uiso   1.00
C4     C     0.55849   0.45979   0.90339   0.01267  Uiso   1.00
C5     C     0.61202   0.38072   0.89362   0.01267  Uiso   1.00
C6     C     0.68290   0.50066   0.85916   0.01267  Uiso   1.00
C7     C     0.57949   0.30780   0.93220   0.01267  Uiso   1.00
C8     C     0.50639   0.30398   0.00555   0.01267  Uiso   1.00
C9     C     0.71455   0.56985   0.83890   0.01267  Uiso   1.00
C10    C     0.86160   0.70280   0.36360   0.01267  Uiso   1.00
C11    C     0.84034   0.73494   0.42634   0.01267  Uiso   1.00
C12    C     0.88311   0.59081   0.52071   0.01267  Uiso   1.00
C13    C     0.90339   0.55849   0.45979   0.01267  Uiso   1.00
C14    C     0.89362   0.61202   0.38072   0.01267  Uiso   1.00
C15    C     0.85916   0.68290   0.50066   0.01267  Uiso   1.00
C16    C     0.93220   0.57949   0.30780   0.01267  Uiso   1.00
C17    C     0.00555   0.50639   0.30398   0.01267  Uiso   1.00
C18    C     0.83890   0.71455   0.56985   0.01267  Uiso   1.00
C19    C     0.36360   0.86160   0.70280   0.01267  Uiso   1.00
C20    C     0.42634   0.84034   0.73494   0.01267  Uiso   1.00
C21    C     0.52071   0.88311   0.59081   0.01267  Uiso   1.00
C22    C     0.45979   0.90339   0.55849   0.01267  Uiso   1.00
C23    C     0.38072   0.89362   0.61202   0.01267  Uiso   1.00
C24    C     0.50066   0.85916   0.68290   0.01267  Uiso   1.00
C25    C     0.30780   0.93220   0.57949   0.01267  Uiso   1.00
C26    C     0.30398   0.00555   0.50639   0.01267  Uiso   1.00
C27    C     0.56985   0.83890   0.71455   0.01267  Uiso   1.00
C28    C     0.13640   0.79720   0.63840   0.01267  Uiso   1.00
C29    C     0.07366   0.76506   0.65966   0.01267  Uiso   1.00
C30    C     0.97929   0.90919   0.61689   0.01267  Uiso   1.00
C31    C     0.04021   0.94151   0.59661   0.01267  Uiso   1.00
C32    C     0.11928   0.88798   0.60638   0.01267  Uiso   1.00
C33    C     0.99934   0.81710   0.64084   0.01267  Uiso   1.00
C34    C     0.19220   0.92051   0.56780   0.01267  Uiso   1.00
C35    C     0.19602   0.99361   0.49445   0.01267  Uiso   1.00
C36    C     0.93015   0.78545   0.66110   0.01267  Uiso   1.00
C37    C     0.79720   0.63840   0.13640   0.01267  Uiso   1.00
C38    C     0.76506   0.65966   0.07366   0.01267  Uiso   1.00
C39    C     0.90919   0.61689   0.97929   0.01267  Uiso   1.00
C40    C     0.94151   0.59661   0.04021   0.01267  Uiso   1.00
C41    C     0.88798   0.60638   0.11928   0.01267  Uiso   1.00
C42    C     0.81710   0.64084   0.99934   0.01267  Uiso   1.00
C43    C     0.92051   0.56780   0.19220   0.01267  Uiso   1.00
C44    C     0.99361   0.49445   0.19602   0.01267  Uiso   1.00
C45    C     0.78545   0.66110   0.93015   0.01267  Uiso   1.00
C46    C     0.63840   0.13640   0.79720   0.01267  Uiso   1.00
C47    C     0.65966   0.07366   0.76506   0.01267  Uiso   1.00
C48    C     0.61689   0.97929   0.90919   0.01267  Uiso   1.00
C49    C     0.59661   0.04021   0.94151   0.01267  Uiso   1.00
C50    C     0.60638   0.11928   0.88798   0.01267  Uiso   1.00
C51    C     0.64084   0.99934   0.81710   0.01267  Uiso   1.00
C52    C     0.56780   0.19220   0.92051   0.01267  Uiso   1.00
C53    C     0.49445   0.19602   0.99361   0.01267  Uiso   1.00
C54    C     0.66110   0.93015   0.78545   0.01267  Uiso   1.00
C55    C     0.29720   0.63640   0.13840   0.01267  Uiso   1.00
C56    C     0.26506   0.57366   0.15966   0.01267  Uiso   1.00
C57    C     0.40919   0.47929   0.11689   0.01267  Uiso   1.00
C58    C     0.44151   0.54021   0.09661   0.01267  Uiso   1.00
C59    C     0.38798   0.61928   0.10638   0.01267  Uiso   1.00
C60    C     0.31710   0.49934   0.14084   0.01267  Uiso   1.00
C61    C     0.42051   0.69220   0.06780   0.01267  Uiso   1.00
C62    C     0.49361   0.69602   0.99445   0.01267  Uiso   1.00
C63    C     0.28545   0.43015   0.16110   0.01267  Uiso   1.00
C64    C     0.13840   0.29720   0.63640   0.01267  Uiso   1.00
C65    C     0.15966   0.26506   0.57366   0.01267  Uiso   1.00
C66    C     0.11689   0.40919   0.47929   0.01267  Uiso   1.00
C67    C     0.09661   0.44151   0.54021   0.01267  Uiso   1.00
C68    C     0.10638   0.38798   0.61928   0.01267  Uiso   1.00
C69    C     0.14084   0.31710   0.49934   0.01267  Uiso   1.00
C70    C     0.06780   0.42051   0.69220   0.01267  Uiso   1.00
C71    C     0.99445   0.49361   0.69602   0.01267  Uiso   1.00
C72    C     0.16110   0.28545   0.43015   0.01267  Uiso   1.00
C73    C     0.63640   0.13840   0.29720   0.01267  Uiso   1.00
C74    C     0.57366   0.15966   0.26506   0.01267  Uiso   1.00
C75    C     0.47929   0.11689   0.40919   0.01267  Uiso   1.00
C76    C     0.54021   0.09661   0.44151   0.01267  Uiso   1.00
C77    C     0.61928   0.10638   0.38798   0.01267  Uiso   1.00
C78    C     0.49934   0.14084   0.31710   0.01267  Uiso   1.00
C79    C     0.69220   0.06780   0.42051   0.01267  Uiso   1.00
C80    C     0.69602   0.99445   0.49361   0.01267  Uiso   1.00
C81    C     0.43015   0.16110   0.28545   0.01267  Uiso   1.00
C82    C     0.86360   0.20280   0.36160   0.01267  Uiso   1.00
C83    C     0.92634   0.23494   0.34034   0.01267  Uiso   1.00
C84    C     0.02071   0.09081   0.38311   0.01267  Uiso   1.00
C85    C     0.95979   0.05849   0.40339   0.01267  Uiso   1.00
C86    C     0.88072   0.11202   0.39362   0.01267  Uiso   1.00
C87    C     0.00066   0.18290   0.35916   0.01267  Uiso   1.00
C88    C     0.80780   0.07949   0.43220   0.01267  Uiso   1.00
C89    C     0.80398   0.00639   0.50555   0.01267  Uiso   1.00
C90    C     0.06985   0.21455   0.33890   0.01267  Uiso   1.00
C91    C     0.20280   0.36160   0.86360   0.01267  Uiso   1.00
C92    C     0.23494   0.34034   0.92634   0.01267  Uiso   1.00
C93    C     0.09081   0.38311   0.02071   0.01267  Uiso   1.00
C94    C     0.05849   0.40339   0.95979   0.01267  Uiso   1.00
C95    C     0.11202   0.39362   0.88072   0.01267  Uiso   1.00
C96    C     0.18290   0.35916   0.00066   0.01267  Uiso   1.00
C97    C     0.07949   0.43220   0.80780   0.01267  Uiso   1.00
C98    C     0.00639   0.50555   0.80398   0.01267  Uiso   1.00
C99    C     0.21455   0.33890   0.06985   0.01267  Uiso   1.00
C100   C     0.36160   0.86360   0.20280   0.01267  Uiso   1.00
C101   C     0.34034   0.92634   0.23494   0.01267  Uiso   1.00
C102   C     0.38311   0.02071   0.09081   0.01267  Uiso   1.00
C103   C     0.40339   0.95979   0.05849   0.01267  Uiso   1.00
C104   C     0.39362   0.88072   0.11202   0.01267  Uiso   1.00
C105   C     0.35916   0.00066   0.18290   0.01267  Uiso   1.00
C106   C     0.43220   0.80780   0.07949   0.01267  Uiso   1.00
C107   C     0.50555   0.80398   0.00639   0.01267  Uiso   1.00
C108   C     0.33890   0.06985   0.21455   0.01267  Uiso   1.00
C109   C     0.61040   0.25000   0.88960   0.01267  Uiso   1.00
C110   C     0.88960   0.61040   0.25000   0.01267  Uiso   1.00
C111   C     0.25000   0.88960   0.61040   0.01267  Uiso   1.00
C112   C     0.38960   0.75000   0.11040   0.01267  Uiso   1.00
C113   C     0.11040   0.38960   0.75000   0.01267  Uiso   1.00
C114   C     0.75000   0.11040   0.38960   0.01267  Uiso   1.00
N1     N     0.46455   0.25000   0.03544   0.01267  Uiso   1.00
N2     N     0.03545   0.46455   0.25000   0.01267  Uiso   1.00
N3     N     0.25000   0.03545   0.46455   0.01267  Uiso   1.00
N4     N     0.53545   0.75000   0.96455   0.01267  Uiso   1.00
N5     N     0.96455   0.53545   0.75000   0.01267  Uiso   1.00
N6     N     0.75000   0.96455   0.53545   0.01267  Uiso   1.00
O1     O     0.78679   0.57035   0.78164   0.01267  Uiso   1.00
O2     O     0.66548   0.62116   0.88118   0.01267  Uiso   1.00
O3     O     0.78164   0.78679   0.57035   0.01267  Uiso   1.00
O4     O     0.88118   0.66548   0.62116   0.01267  Uiso   1.00
O5     O     0.57035   0.78164   0.78679   0.01267  Uiso   1.00
O6     O     0.62116   0.88118   0.66548   0.01267  Uiso   1.00
O7     O     0.92965   0.71321   0.71836   0.01267  Uiso   1.00
O8     O     0.87884   0.83452   0.61882   0.01267  Uiso   1.00
O9     O     0.71321   0.71836   0.92965   0.01267  Uiso   1.00
O10    O     0.83452   0.61882   0.87884   0.01267  Uiso   1.00
O11    O     0.71836   0.92965   0.71321   0.01267  Uiso   1.00
O12    O     0.61882   0.87884   0.83452   0.01267  Uiso   1.00
O13    O     0.21321   0.42965   0.21836   0.01267  Uiso   1.00
O14    O     0.33452   0.37884   0.11882   0.01267  Uiso   1.00
O15    O     0.21836   0.21321   0.42965   0.01267  Uiso   1.00
O16    O     0.11882   0.33452   0.37884   0.01267  Uiso   1.00
O17    O     0.42965   0.21836   0.21321   0.01267  Uiso   1.00
O18    O     0.37884   0.11882   0.33452   0.01267  Uiso   1.00
O19    O     0.07035   0.28679   0.28164   0.01267  Uiso   1.00
O20    O     0.12116   0.16548   0.38118   0.01267  Uiso   1.00
O21    O     0.28679   0.28164   0.07035   0.01267  Uiso   1.00
O22    O     0.16548   0.38118   0.12116   0.01267  Uiso   1.00
O23    O     0.28164   0.07035   0.28679   0.01267  Uiso   1.00
O24    O     0.38118   0.12116   0.16548   0.01267  Uiso   1.00
O25    O     0.25000   0.25000   0.25000   0.01267  Uiso   1.00
O26    O     0.75000   0.75000   0.75000   0.01267  Uiso   1.00
