data_VOCXUH_clean
_audit_creation_date              2014-07-02
_audit_creation_method            'Materials Studio'
_symmetry_space_group_name_H-M    'P1'
_symmetry_Int_Tables_number       1
_symmetry_cell_setting            triclinic
loop_
_symmetry_equiv_pos_as_xyz
  x,y,z
_cell_length_a                    11.3890
_cell_length_b                    16.6736
_cell_length_c                    16.6736
_cell_angle_alpha                 120.0000
_cell_angle_beta                  90.0000
_cell_angle_gamma                 90.0000
loop_
_atom_site_label
_atom_site_type_symbol
_atom_site_fract_x
_atom_site_fract_y
_atom_site_fract_z
_atom_site_U_iso_or_equiv
_atom_site_adp_type
_atom_site_occupancy
Co1    Co    0.00000   0.67765   0.67765   0.01267  Uiso   1.00
Co2    Co    0.00000   0.00000   0.32235   0.01267  Uiso   1.00
Co3    Co    0.00000   0.32235   0.00000   0.01267  Uiso   1.00
H1     H     0.59180   0.60720   0.74460   0.01267  Uiso   1.00
H2     H     0.79380   0.59890   0.72940   0.01267  Uiso   1.00
H3     H     0.59180   0.13740   0.39280   0.01267  Uiso   1.00
H4     H     0.79380   0.13050   0.40110   0.01267  Uiso   1.00
H5     H     0.59180   0.25540   0.86260   0.01267  Uiso   1.00
H6     H     0.79380   0.27060   0.86950   0.01267  Uiso   1.00
H7     H     0.40820   0.60720   0.74460   0.01267  Uiso   1.00
H8     H     0.20620   0.59890   0.72940   0.01267  Uiso   1.00
H9     H     0.40820   0.13740   0.39280   0.01267  Uiso   1.00
H10    H     0.20620   0.13050   0.40110   0.01267  Uiso   1.00
H11    H     0.40820   0.25540   0.86260   0.01267  Uiso   1.00
H12    H     0.20620   0.27060   0.86950   0.01267  Uiso   1.00
H13    H     0.40820   0.86260   0.25540   0.01267  Uiso   1.00
H14    H     0.20620   0.86950   0.27060   0.01267  Uiso   1.00
H15    H     0.40820   0.74460   0.60720   0.01267  Uiso   1.00
H16    H     0.20620   0.72940   0.59890   0.01267  Uiso   1.00
H17    H     0.40820   0.39280   0.13740   0.01267  Uiso   1.00
H18    H     0.20620   0.40110   0.13050   0.01267  Uiso   1.00
H19    H     0.59180   0.86260   0.25540   0.01267  Uiso   1.00
H20    H     0.79380   0.86950   0.27060   0.01267  Uiso   1.00
H21    H     0.59180   0.74460   0.60720   0.01267  Uiso   1.00
H22    H     0.79380   0.72940   0.59890   0.01267  Uiso   1.00
H23    H     0.59180   0.39280   0.13740   0.01267  Uiso   1.00
H24    H     0.79380   0.40110   0.13050   0.01267  Uiso   1.00
H25    H     0.00000   0.28440   0.50970   0.01267  Uiso   1.00
H26    H     0.00000   0.22530   0.71560   0.01267  Uiso   1.00
H27    H     0.00000   0.49030   0.77470   0.01267  Uiso   1.00
H28    H     0.00000   0.77470   0.49030   0.01267  Uiso   1.00
H29    H     0.00000   0.50970   0.28440   0.01267  Uiso   1.00
H30    H     0.00000   0.71560   0.22530   0.01267  Uiso   1.00
H31    H     0.00000   0.00000   0.86170   0.01267  Uiso   1.00
H32    H     0.00000   0.86170   0.00000   0.01267  Uiso   1.00
H33    H     0.00000   0.13830   0.13830   0.01267  Uiso   1.00
C1     C     0.62940   0.63400   0.71420   0.01267  Uiso   1.00
C2     C     0.75240   0.63300   0.70850   0.01267  Uiso   1.00
C3     C     0.62940   0.08020   0.36600   0.01267  Uiso   1.00
C4     C     0.75240   0.07550   0.36700   0.01267  Uiso   1.00
C5     C     0.62940   0.28580   0.91980   0.01267  Uiso   1.00
C6     C     0.75240   0.29150   0.92450   0.01267  Uiso   1.00
C7     C     0.37060   0.63400   0.71420   0.01267  Uiso   1.00
C8     C     0.24760   0.63300   0.70850   0.01267  Uiso   1.00
C9     C     0.37060   0.08020   0.36600   0.01267  Uiso   1.00
C10    C     0.24760   0.07550   0.36700   0.01267  Uiso   1.00
C11    C     0.37060   0.28580   0.91980   0.01267  Uiso   1.00
C12    C     0.24760   0.29150   0.92450   0.01267  Uiso   1.00
C13    C     0.37060   0.91980   0.28580   0.01267  Uiso   1.00
C14    C     0.24760   0.92450   0.29150   0.01267  Uiso   1.00
C15    C     0.37060   0.71420   0.63400   0.01267  Uiso   1.00
C16    C     0.24760   0.70850   0.63300   0.01267  Uiso   1.00
C17    C     0.37060   0.36600   0.08020   0.01267  Uiso   1.00
C18    C     0.24760   0.36700   0.07550   0.01267  Uiso   1.00
C19    C     0.62940   0.91980   0.28580   0.01267  Uiso   1.00
C20    C     0.75240   0.92450   0.29150   0.01267  Uiso   1.00
C21    C     0.62940   0.71420   0.63400   0.01267  Uiso   1.00
C22    C     0.75240   0.70850   0.63300   0.01267  Uiso   1.00
C23    C     0.62940   0.36600   0.08020   0.01267  Uiso   1.00
C24    C     0.75240   0.36700   0.07550   0.01267  Uiso   1.00
C25    C     0.00000   0.91610   0.91610   0.01267  Uiso   1.00
C26    C     0.00000   0.82640   0.82640   0.01267  Uiso   1.00
C27    C     0.00000   0.00000   0.08390   0.01267  Uiso   1.00
C28    C     0.00000   0.00000   0.17360   0.01267  Uiso   1.00
C29    C     0.00000   0.08390   0.00000   0.01267  Uiso   1.00
C30    C     0.00000   0.17360   0.00000   0.01267  Uiso   1.00
C31    C     0.00000   0.39820   0.63730   0.01267  Uiso   1.00
C32    C     0.00000   0.30410   0.57270   0.01267  Uiso   1.00
C33    C     0.00000   0.46780   0.60550   0.01267  Uiso   1.00
C34    C     0.00000   0.23910   0.60180   0.01267  Uiso   1.00
C35    C     0.00000   0.26860   0.69590   0.01267  Uiso   1.00
C36    C     0.00000   0.13770   0.53220   0.01267  Uiso   1.00
C37    C     0.00000   0.36270   0.76090   0.01267  Uiso   1.00
C38    C     0.00000   0.42730   0.73140   0.01267  Uiso   1.00
C39    C     0.00000   0.39450   0.86230   0.01267  Uiso   1.00
C40    C     0.00000   0.76090   0.36270   0.01267  Uiso   1.00
C41    C     0.00000   0.73140   0.42730   0.01267  Uiso   1.00
C42    C     0.00000   0.86230   0.39450   0.01267  Uiso   1.00
C43    C     0.00000   0.63730   0.39820   0.01267  Uiso   1.00
C44    C     0.00000   0.57270   0.30410   0.01267  Uiso   1.00
C45    C     0.00000   0.60550   0.46780   0.01267  Uiso   1.00
C46    C     0.00000   0.60180   0.23910   0.01267  Uiso   1.00
C47    C     0.00000   0.69590   0.26860   0.01267  Uiso   1.00
C48    C     0.00000   0.53220   0.13770   0.01267  Uiso   1.00
C49    C     0.00000   0.00000   0.91740   0.01267  Uiso   1.00
C50    C     0.00000   0.91740   0.00000   0.01267  Uiso   1.00
C51    C     0.00000   0.08260   0.08260   0.01267  Uiso   1.00
C52    C     0.56530   0.67570   0.67570   0.01267  Uiso   1.00
C53    C     0.56530   0.00000   0.32430   0.01267  Uiso   1.00
C54    C     0.56530   0.32430   0.00000   0.01267  Uiso   1.00
C55    C     0.43470   0.67570   0.67570   0.01267  Uiso   1.00
C56    C     0.43470   0.00000   0.32430   0.01267  Uiso   1.00
C57    C     0.43470   0.32430   0.00000   0.01267  Uiso   1.00
N1     N     0.81110   0.67570   0.67570   0.01267  Uiso   1.00
N2     N     0.81110   0.00000   0.32430   0.01267  Uiso   1.00
N3     N     0.81110   0.32430   0.00000   0.01267  Uiso   1.00
N4     N     0.18890   0.67570   0.67570   0.01267  Uiso   1.00
N5     N     0.18890   0.00000   0.32430   0.01267  Uiso   1.00
N6     N     0.18890   0.32430   0.00000   0.01267  Uiso   1.00
O1     O     0.00000   0.55070   0.66540   0.01267  Uiso   1.00
O2     O     0.00000   0.82750   0.75130   0.01267  Uiso   1.00
O3     O     0.00000   0.43700   0.52080   0.01267  Uiso   1.00
O4     O     0.00000   0.11470   0.44930   0.01267  Uiso   1.00
O5     O     0.00000   0.92380   0.17250   0.01267  Uiso   1.00
O6     O     0.00000   0.08380   0.56300   0.01267  Uiso   1.00
O7     O     0.00000   0.33460   0.88530   0.01267  Uiso   1.00
O8     O     0.00000   0.24870   0.07620   0.01267  Uiso   1.00
O9     O     0.00000   0.47920   0.91620   0.01267  Uiso   1.00
O10    O     0.00000   0.88530   0.33460   0.01267  Uiso   1.00
O11    O     0.00000   0.07620   0.24870   0.01267  Uiso   1.00
O12    O     0.00000   0.91620   0.47920   0.01267  Uiso   1.00
O13    O     0.00000   0.66540   0.55070   0.01267  Uiso   1.00
O14    O     0.00000   0.75130   0.82750   0.01267  Uiso   1.00
O15    O     0.00000   0.52080   0.43700   0.01267  Uiso   1.00
O16    O     0.00000   0.44930   0.11470   0.01267  Uiso   1.00
O17    O     0.00000   0.17250   0.92380   0.01267  Uiso   1.00
O18    O     0.00000   0.56300   0.08380   0.01267  Uiso   1.00
