data_VONBUW_clean
_audit_creation_date              2014-07-02
_audit_creation_method            'Materials Studio'
_symmetry_space_group_name_H-M    'P1'
_symmetry_Int_Tables_number       1
_symmetry_cell_setting            triclinic
loop_
_symmetry_equiv_pos_as_xyz
  x,y,z
_cell_length_a                    11.2894
_cell_length_b                    11.2894
_cell_length_c                    25.6360
_cell_angle_alpha                 92.5765
_cell_angle_beta                  92.5765
_cell_angle_gamma                 101.3800
loop_
_atom_site_label
_atom_site_type_symbol
_atom_site_fract_x
_atom_site_fract_y
_atom_site_fract_z
_atom_site_U_iso_or_equiv
_atom_site_adp_type
_atom_site_occupancy
Zn1    Zn    0.84586   0.18200   0.49430   0.01267  Uiso   1.00
Zn2    Zn    0.81800   0.15414   0.00570   0.01267  Uiso   1.00
Zn3    Zn    0.15414   0.81800   0.50570   0.01267  Uiso   1.00
Zn4    Zn    0.18200   0.84586   0.99430   0.01267  Uiso   1.00
H1     H     0.09790   0.05730   0.59280   0.01267  Uiso   1.00
H2     H     0.38180   0.63320   0.52560   0.01267  Uiso   1.00
H3     H     0.61530   0.60190   0.68240   0.01267  Uiso   1.00
H4     H     0.70680   0.57460   0.60510   0.01267  Uiso   1.00
H5     H     0.65690   0.56070   0.44670   0.01267  Uiso   1.00
H6     H     0.22800   0.00140   0.65540   0.01267  Uiso   1.00
H7     H     0.68650   0.27550   0.39550   0.01267  Uiso   1.00
H8     H     0.46720   0.97320   0.86170   0.01267  Uiso   1.00
H9     H     0.73100   0.73520   0.53570   0.01267  Uiso   1.00
H10    H     0.17740   0.11760   0.76360   0.01267  Uiso   1.00
H11    H     0.21910   0.40490   0.63780   0.01267  Uiso   1.00
H12    H     0.70240   0.22980   0.63580   0.01267  Uiso   1.00
H13    H     0.13350   0.04150   0.84410   0.01267  Uiso   1.00
H14    H     0.61020   0.25520   0.71300   0.01267  Uiso   1.00
H15    H     0.44820   0.90940   0.42180   0.01267  Uiso   1.00
H16    H     0.34560   0.34920   0.70150   0.01267  Uiso   1.00
H17    H     0.51080   0.04720   0.78090   0.01267  Uiso   1.00
H18    H     0.46270   0.76990   0.46460   0.01267  Uiso   1.00
H19    H     0.55270   0.73530   0.42460   0.01267  Uiso   1.00
H20    H     0.87170   0.92830   0.55690   0.01267  Uiso   1.00
H21    H     0.50800   0.21660   0.34700   0.01267  Uiso   1.00
H22    H     0.38230   0.03510   0.36350   0.01267  Uiso   1.00
H23    H     0.94270   0.90210   0.90720   0.01267  Uiso   1.00
H24    H     0.36680   0.61820   0.97440   0.01267  Uiso   1.00
H25    H     0.39810   0.38470   0.81760   0.01267  Uiso   1.00
H26    H     0.42540   0.29320   0.89490   0.01267  Uiso   1.00
H27    H     0.43930   0.34310   0.05330   0.01267  Uiso   1.00
H28    H     0.99860   0.77200   0.84460   0.01267  Uiso   1.00
H29    H     0.72450   0.31350   0.10450   0.01267  Uiso   1.00
H30    H     0.02680   0.53280   0.63830   0.01267  Uiso   1.00
H31    H     0.26480   0.26900   0.96430   0.01267  Uiso   1.00
H32    H     0.88240   0.82260   0.73640   0.01267  Uiso   1.00
H33    H     0.59510   0.78090   0.86220   0.01267  Uiso   1.00
H34    H     0.77020   0.29760   0.86420   0.01267  Uiso   1.00
H35    H     0.95850   0.86650   0.65590   0.01267  Uiso   1.00
H36    H     0.74480   0.38980   0.78700   0.01267  Uiso   1.00
H37    H     0.09060   0.55180   0.07820   0.01267  Uiso   1.00
H38    H     0.65080   0.65440   0.79850   0.01267  Uiso   1.00
H39    H     0.95280   0.48920   0.71910   0.01267  Uiso   1.00
H40    H     0.23010   0.53730   0.03540   0.01267  Uiso   1.00
H41    H     0.26470   0.44730   0.07540   0.01267  Uiso   1.00
H42    H     0.07170   0.12830   0.94310   0.01267  Uiso   1.00
H43    H     0.78340   0.49200   0.15300   0.01267  Uiso   1.00
H44    H     0.96490   0.61770   0.13650   0.01267  Uiso   1.00
H45    H     0.90210   0.94270   0.40720   0.01267  Uiso   1.00
H46    H     0.61820   0.36680   0.47440   0.01267  Uiso   1.00
H47    H     0.38470   0.39810   0.31760   0.01267  Uiso   1.00
H48    H     0.29320   0.42540   0.39490   0.01267  Uiso   1.00
H49    H     0.34310   0.43930   0.55330   0.01267  Uiso   1.00
H50    H     0.77200   0.99860   0.34460   0.01267  Uiso   1.00
H51    H     0.31350   0.72450   0.60450   0.01267  Uiso   1.00
H52    H     0.53280   0.02680   0.13830   0.01267  Uiso   1.00
H53    H     0.26900   0.26480   0.46430   0.01267  Uiso   1.00
H54    H     0.82260   0.88240   0.23640   0.01267  Uiso   1.00
H55    H     0.78090   0.59510   0.36220   0.01267  Uiso   1.00
H56    H     0.29760   0.77020   0.36420   0.01267  Uiso   1.00
H57    H     0.86650   0.95850   0.15590   0.01267  Uiso   1.00
H58    H     0.38980   0.74480   0.28700   0.01267  Uiso   1.00
H59    H     0.55180   0.09060   0.57820   0.01267  Uiso   1.00
H60    H     0.65440   0.65080   0.29850   0.01267  Uiso   1.00
H61    H     0.48920   0.95280   0.21910   0.01267  Uiso   1.00
H62    H     0.53730   0.23010   0.53540   0.01267  Uiso   1.00
H63    H     0.44730   0.26470   0.57540   0.01267  Uiso   1.00
H64    H     0.12830   0.07170   0.44310   0.01267  Uiso   1.00
H65    H     0.49200   0.78340   0.65300   0.01267  Uiso   1.00
H66    H     0.61770   0.96490   0.63650   0.01267  Uiso   1.00
H67    H     0.05730   0.09790   0.09280   0.01267  Uiso   1.00
H68    H     0.63320   0.38180   0.02560   0.01267  Uiso   1.00
H69    H     0.60190   0.61530   0.18240   0.01267  Uiso   1.00
H70    H     0.57460   0.70680   0.10510   0.01267  Uiso   1.00
H71    H     0.56070   0.65690   0.94670   0.01267  Uiso   1.00
H72    H     0.00140   0.22800   0.15540   0.01267  Uiso   1.00
H73    H     0.27550   0.68650   0.89550   0.01267  Uiso   1.00
H74    H     0.97320   0.46720   0.36170   0.01267  Uiso   1.00
H75    H     0.73520   0.73100   0.03570   0.01267  Uiso   1.00
H76    H     0.11760   0.17740   0.26360   0.01267  Uiso   1.00
H77    H     0.40490   0.21910   0.13780   0.01267  Uiso   1.00
H78    H     0.22980   0.70240   0.13580   0.01267  Uiso   1.00
H79    H     0.04150   0.13350   0.34410   0.01267  Uiso   1.00
H80    H     0.25520   0.61020   0.21300   0.01267  Uiso   1.00
H81    H     0.90940   0.44820   0.92180   0.01267  Uiso   1.00
H82    H     0.34920   0.34560   0.20150   0.01267  Uiso   1.00
H83    H     0.04720   0.51080   0.28090   0.01267  Uiso   1.00
H84    H     0.76990   0.46270   0.96460   0.01267  Uiso   1.00
H85    H     0.73530   0.55270   0.92460   0.01267  Uiso   1.00
H86    H     0.92830   0.87170   0.05690   0.01267  Uiso   1.00
H87    H     0.21660   0.50800   0.84700   0.01267  Uiso   1.00
H88    H     0.03510   0.38230   0.86350   0.01267  Uiso   1.00
C1     C     0.29538   0.00002   0.86160   0.01267  Uiso   1.00
C2     C     0.71432   0.39948   0.61268   0.01267  Uiso   1.00
C3     C     0.34820   0.09020   0.76495   0.01267  Uiso   1.00
C4     C     0.14615   0.23645   0.60823   0.01267  Uiso   1.00
C5     C     0.14870   0.11650   0.61423   0.01267  Uiso   1.00
C6     C     0.42980   0.57940   0.51505   0.01267  Uiso   1.00
C7     C     0.60709   0.02171   0.44280   0.01267  Uiso   1.00
C8     C     0.06391   0.27109   0.56625   0.01267  Uiso   1.00
C9     C     0.63329   0.52711   0.67308   0.01267  Uiso   1.00
C10    C     0.68783   0.51057   0.62685   0.01267  Uiso   1.00
C11    C     0.66533   0.95225   0.47910   0.01267  Uiso   1.00
C12    C     0.60551   0.43229   0.70532   0.01267  Uiso   1.00
C13    C     0.59320   0.53680   0.46818   0.01267  Uiso   1.00
C14    C     0.22600   0.08260   0.65183   0.01267  Uiso   1.00
C15    C     0.63780   0.20100   0.40088   0.01267  Uiso   1.00
C16    C     0.40874   0.00206   0.84203   0.01267  Uiso   1.00
C17    C     0.72560   0.80960   0.52265   0.01267  Uiso   1.00
C18    C     0.29970   0.17050   0.68362   0.01267  Uiso   1.00
C19    C     0.23550   0.08850   0.78338   0.01267  Uiso   1.00
C20    C     0.22050   0.32350   0.64125   0.01267  Uiso   1.00
C21    C     0.68490   0.30470   0.64524   0.01267  Uiso   1.00
C22    C     0.20980   0.04320   0.83156   0.01267  Uiso   1.00
C23    C     0.63010   0.31950   0.69149   0.01267  Uiso   1.00
C24    C     0.49620   0.98420   0.41607   0.01267  Uiso   1.00
C25    C     0.29670   0.29050   0.67916   0.01267  Uiso   1.00
C26    C     0.43510   0.04650   0.79389   0.01267  Uiso   1.00
C27    C     0.77600   0.38120   0.56322   0.01267  Uiso   1.00
C28    C     0.53780   0.74160   0.46147   0.01267  Uiso   1.00
C29    C     0.52310   0.61710   0.48289   0.01267  Uiso   1.00
C30    C     0.80360   0.91680   0.53405   0.01267  Uiso   1.00
C31    C     0.53080   0.16720   0.37210   0.01267  Uiso   1.00
C32    C     0.45780   0.05840   0.38120   0.01267  Uiso   1.00
C33    C     0.26431   0.95069   0.91299   0.01267  Uiso   1.00
C34    C     0.99998   0.70462   0.63840   0.01267  Uiso   1.00
C35    C     0.60052   0.28568   0.88732   0.01267  Uiso   1.00
C36    C     0.90980   0.65180   0.73505   0.01267  Uiso   1.00
C37    C     0.76355   0.85385   0.89177   0.01267  Uiso   1.00
C38    C     0.88350   0.85130   0.88577   0.01267  Uiso   1.00
C39    C     0.42060   0.57020   0.98495   0.01267  Uiso   1.00
C40    C     0.97829   0.39291   0.05720   0.01267  Uiso   1.00
C41    C     0.72891   0.93609   0.93375   0.01267  Uiso   1.00
C42    C     0.47289   0.36671   0.82692   0.01267  Uiso   1.00
C43    C     0.48943   0.31217   0.87315   0.01267  Uiso   1.00
C44    C     0.04775   0.33467   0.02090   0.01267  Uiso   1.00
C45    C     0.56771   0.39449   0.79468   0.01267  Uiso   1.00
C46    C     0.46320   0.40680   0.03182   0.01267  Uiso   1.00
C47    C     0.91740   0.77400   0.84817   0.01267  Uiso   1.00
C48    C     0.79900   0.36220   0.09912   0.01267  Uiso   1.00
C49    C     0.99794   0.59126   0.65797   0.01267  Uiso   1.00
C50    C     0.19040   0.27440   0.97735   0.01267  Uiso   1.00
C51    C     0.82950   0.70030   0.81638   0.01267  Uiso   1.00
C52    C     0.91150   0.76450   0.71662   0.01267  Uiso   1.00
C53    C     0.67650   0.77950   0.85875   0.01267  Uiso   1.00
C54    C     0.69530   0.31510   0.85476   0.01267  Uiso   1.00
C55    C     0.95680   0.79020   0.66844   0.01267  Uiso   1.00
C56    C     0.68050   0.36990   0.80851   0.01267  Uiso   1.00
C57    C     0.01580   0.50380   0.08393   0.01267  Uiso   1.00
C58    C     0.70950   0.70330   0.82084   0.01267  Uiso   1.00
C59    C     0.95350   0.56490   0.70611   0.01267  Uiso   1.00
C60    C     0.61880   0.22400   0.93678   0.01267  Uiso   1.00
C61    C     0.25840   0.46220   0.03853   0.01267  Uiso   1.00
C62    C     0.38290   0.47690   0.01711   0.01267  Uiso   1.00
C63    C     0.08320   0.19640   0.96595   0.01267  Uiso   1.00
C64    C     0.83280   0.46920   0.12790   0.01267  Uiso   1.00
C65    C     0.94160   0.54220   0.11880   0.01267  Uiso   1.00
C66    C     0.04931   0.73569   0.58701   0.01267  Uiso   1.00
C67    C     0.70462   0.99998   0.13840   0.01267  Uiso   1.00
C68    C     0.28568   0.60052   0.38732   0.01267  Uiso   1.00
C69    C     0.65180   0.90980   0.23505   0.01267  Uiso   1.00
C70    C     0.85385   0.76355   0.39177   0.01267  Uiso   1.00
C71    C     0.85130   0.88350   0.38577   0.01267  Uiso   1.00
C72    C     0.57020   0.42060   0.48495   0.01267  Uiso   1.00
C73    C     0.39291   0.97829   0.55720   0.01267  Uiso   1.00
C74    C     0.93609   0.72891   0.43375   0.01267  Uiso   1.00
C75    C     0.36671   0.47289   0.32692   0.01267  Uiso   1.00
C76    C     0.31217   0.48943   0.37315   0.01267  Uiso   1.00
C77    C     0.33467   0.04775   0.52090   0.01267  Uiso   1.00
C78    C     0.39449   0.56771   0.29468   0.01267  Uiso   1.00
C79    C     0.40680   0.46320   0.53182   0.01267  Uiso   1.00
C80    C     0.77400   0.91740   0.34817   0.01267  Uiso   1.00
C81    C     0.36220   0.79900   0.59912   0.01267  Uiso   1.00
C82    C     0.59126   0.99794   0.15797   0.01267  Uiso   1.00
C83    C     0.27440   0.19040   0.47735   0.01267  Uiso   1.00
C84    C     0.70030   0.82950   0.31638   0.01267  Uiso   1.00
C85    C     0.76450   0.91150   0.21662   0.01267  Uiso   1.00
C86    C     0.77950   0.67650   0.35875   0.01267  Uiso   1.00
C87    C     0.31510   0.69530   0.35476   0.01267  Uiso   1.00
C88    C     0.79020   0.95680   0.16844   0.01267  Uiso   1.00
C89    C     0.36990   0.68050   0.30851   0.01267  Uiso   1.00
C90    C     0.50380   0.01580   0.58393   0.01267  Uiso   1.00
C91    C     0.70330   0.70950   0.32084   0.01267  Uiso   1.00
C92    C     0.56490   0.95350   0.20611   0.01267  Uiso   1.00
C93    C     0.22400   0.61880   0.43678   0.01267  Uiso   1.00
C94    C     0.46220   0.25840   0.53853   0.01267  Uiso   1.00
C95    C     0.47690   0.38290   0.51711   0.01267  Uiso   1.00
C96    C     0.19640   0.08320   0.46595   0.01267  Uiso   1.00
C97    C     0.46920   0.83280   0.62790   0.01267  Uiso   1.00
C98    C     0.54220   0.94160   0.61880   0.01267  Uiso   1.00
C99    C     0.73569   0.04931   0.08701   0.01267  Uiso   1.00
C100   C     0.00002   0.29538   0.36160   0.01267  Uiso   1.00
C101   C     0.39948   0.71432   0.11268   0.01267  Uiso   1.00
C102   C     0.09020   0.34820   0.26495   0.01267  Uiso   1.00
C103   C     0.23645   0.14615   0.10823   0.01267  Uiso   1.00
C104   C     0.11650   0.14870   0.11423   0.01267  Uiso   1.00
C105   C     0.57940   0.42980   0.01505   0.01267  Uiso   1.00
C106   C     0.02171   0.60709   0.94280   0.01267  Uiso   1.00
C107   C     0.27109   0.06391   0.06625   0.01267  Uiso   1.00
C108   C     0.52711   0.63329   0.17308   0.01267  Uiso   1.00
C109   C     0.51057   0.68783   0.12685   0.01267  Uiso   1.00
C110   C     0.95225   0.66533   0.97910   0.01267  Uiso   1.00
C111   C     0.43229   0.60551   0.20532   0.01267  Uiso   1.00
C112   C     0.53680   0.59320   0.96818   0.01267  Uiso   1.00
C113   C     0.08260   0.22600   0.15183   0.01267  Uiso   1.00
C114   C     0.20100   0.63780   0.90088   0.01267  Uiso   1.00
C115   C     0.00206   0.40874   0.34203   0.01267  Uiso   1.00
C116   C     0.80960   0.72560   0.02265   0.01267  Uiso   1.00
C117   C     0.17050   0.29970   0.18362   0.01267  Uiso   1.00
C118   C     0.08850   0.23550   0.28338   0.01267  Uiso   1.00
C119   C     0.32350   0.22050   0.14125   0.01267  Uiso   1.00
C120   C     0.30470   0.68490   0.14524   0.01267  Uiso   1.00
C121   C     0.04320   0.20980   0.33156   0.01267  Uiso   1.00
C122   C     0.31950   0.63010   0.19149   0.01267  Uiso   1.00
C123   C     0.98420   0.49620   0.91607   0.01267  Uiso   1.00
C124   C     0.29050   0.29670   0.17916   0.01267  Uiso   1.00
C125   C     0.04650   0.43510   0.29389   0.01267  Uiso   1.00
C126   C     0.38120   0.77600   0.06322   0.01267  Uiso   1.00
C127   C     0.74160   0.53780   0.96147   0.01267  Uiso   1.00
C128   C     0.61710   0.52310   0.98289   0.01267  Uiso   1.00
C129   C     0.91680   0.80360   0.03405   0.01267  Uiso   1.00
C130   C     0.16720   0.53080   0.87210   0.01267  Uiso   1.00
C131   C     0.05840   0.45780   0.88120   0.01267  Uiso   1.00
C132   C     0.95069   0.26431   0.41299   0.01267  Uiso   1.00
N1     N     0.67579   0.13181   0.43637   0.01267  Uiso   1.00
N2     N     0.63728   0.83242   0.48810   0.01267  Uiso   1.00
N3     N     0.76629   0.00495   0.50669   0.01267  Uiso   1.00
N4     N     0.86819   0.32421   0.06363   0.01267  Uiso   1.00
N5     N     0.16758   0.36272   0.01190   0.01267  Uiso   1.00
N6     N     0.99505   0.23371   0.99331   0.01267  Uiso   1.00
N7     N     0.32421   0.86819   0.56363   0.01267  Uiso   1.00
N8     N     0.36272   0.16758   0.51190   0.01267  Uiso   1.00
N9     N     0.23371   0.99505   0.49331   0.01267  Uiso   1.00
N10    N     0.13181   0.67579   0.93637   0.01267  Uiso   1.00
N11    N     0.83242   0.63728   0.98810   0.01267  Uiso   1.00
N12    N     0.00495   0.76629   0.00669   0.01267  Uiso   1.00
O1     O     0.83596   0.47282   0.54442   0.01267  Uiso   1.00
O2     O     0.07898   0.37904   0.55513   0.01267  Uiso   1.00
O3     O     0.38524   0.13876   0.71839   0.01267  Uiso   1.00
O4     O     0.76005   0.27375   0.54460   0.01267  Uiso   1.00
O5     O     0.98592   0.18518   0.54539   0.01267  Uiso   1.00
O6     O     0.34132   0.91192   0.94131   0.01267  Uiso   1.00
O7     O     0.15828   0.94378   0.92702   0.01267  Uiso   1.00
O8     O     0.52718   0.16404   0.95558   0.01267  Uiso   1.00
O9     O     0.62096   0.92102   0.94487   0.01267  Uiso   1.00
O10    O     0.86124   0.61476   0.78161   0.01267  Uiso   1.00
O11    O     0.72625   0.23995   0.95540   0.01267  Uiso   1.00
O12    O     0.81482   0.01408   0.95461   0.01267  Uiso   1.00
O13    O     0.08808   0.65868   0.55869   0.01267  Uiso   1.00
O14    O     0.05622   0.84172   0.57298   0.01267  Uiso   1.00
O15    O     0.16404   0.52718   0.45558   0.01267  Uiso   1.00
O16    O     0.92102   0.62096   0.44487   0.01267  Uiso   1.00
O17    O     0.61476   0.86124   0.28161   0.01267  Uiso   1.00
O18    O     0.23995   0.72625   0.45540   0.01267  Uiso   1.00
O19    O     0.01408   0.81482   0.45461   0.01267  Uiso   1.00
O20    O     0.65868   0.08808   0.05869   0.01267  Uiso   1.00
O21    O     0.84172   0.05622   0.07298   0.01267  Uiso   1.00
O22    O     0.47282   0.83596   0.04442   0.01267  Uiso   1.00
O23    O     0.37904   0.07898   0.05513   0.01267  Uiso   1.00
O24    O     0.13876   0.38524   0.21839   0.01267  Uiso   1.00
O25    O     0.27375   0.76005   0.04460   0.01267  Uiso   1.00
O26    O     0.18518   0.98592   0.04539   0.01267  Uiso   1.00
O27    O     0.91192   0.34132   0.44131   0.01267  Uiso   1.00
O28    O     0.94378   0.15828   0.42702   0.01267  Uiso   1.00
O29    O     0.54649   0.45351   0.75000   0.01267  Uiso   1.00
O30    O     0.45351   0.54649   0.25000   0.01267  Uiso   1.00
