data_WAHMUP_clean
_audit_creation_date              2014-07-02
_audit_creation_method            'Materials Studio'
_symmetry_space_group_name_H-M    'P1'
_symmetry_Int_Tables_number       1
_symmetry_cell_setting            triclinic
loop_
_symmetry_equiv_pos_as_xyz
  x,y,z
_cell_length_a                    8.2120
_cell_length_b                    10.6380
_cell_length_c                    13.5060
_cell_angle_alpha                 97.5380
_cell_angle_beta                  90.2940
_cell_angle_gamma                 108.6110
loop_
_atom_site_label
_atom_site_type_symbol
_atom_site_fract_x
_atom_site_fract_y
_atom_site_fract_z
_atom_site_U_iso_or_equiv
_atom_site_adp_type
_atom_site_occupancy
Cu1    Cu    0.00000   0.50000   0.50000   0.01267  Uiso   1.00
Cu2    Cu    0.50000  -0.00000   0.00000   0.01267  Uiso   1.00
H1     H     0.48360   0.05420   0.59930   0.01267  Uiso   1.00
H2     H     0.34670   0.03270   0.51150   0.01267  Uiso   1.00
H3     H     0.71880   0.92130   0.71740   0.01267  Uiso   1.00
H4     H     0.78980   0.84400   0.78890   0.01267  Uiso   1.00
H5     H     0.16550   0.07510   0.94000   0.01267  Uiso   1.00
H6     H     0.86660   0.64330   0.69710   0.01267  Uiso   1.00
H7     H     0.94220   0.07750   0.81120   0.01267  Uiso   1.00
H8     H     0.00450   0.06160   0.70230   0.01267  Uiso   1.00
H9     H     0.91520   0.75400   0.43200   0.01267  Uiso   1.00
H10    H     0.66850   0.37530   0.35260   0.01267  Uiso   1.00
H11    H     0.74560   0.27320   0.60920   0.01267  Uiso   1.00
H12    H     0.39340   0.85720   0.78400   0.01267  Uiso   1.00
H13    H     0.51640   0.94580   0.40070   0.01267  Uiso   1.00
H14    H     0.65330   0.96730   0.48850   0.01267  Uiso   1.00
H15    H     0.28120   0.07870   0.28260   0.01267  Uiso   1.00
H16    H     0.21020   0.15600   0.21110   0.01267  Uiso   1.00
H17    H     0.83450   0.92490   0.06000   0.01267  Uiso   1.00
H18    H     0.13340   0.35670   0.30290   0.01267  Uiso   1.00
H19    H     0.05780   0.92250   0.18880   0.01267  Uiso   1.00
H20    H     0.99550   0.93840   0.29770   0.01267  Uiso   1.00
H21    H     0.08480   0.24600   0.56800   0.01267  Uiso   1.00
H22    H     0.33150   0.62470   0.64740   0.01267  Uiso   1.00
H23    H     0.25440   0.72680   0.39080   0.01267  Uiso   1.00
H24    H     0.60660   0.14280   0.21600   0.01267  Uiso   1.00
C1     C     0.46830   0.05270   0.52780   0.01267  Uiso   1.00
C2     C     0.81660   0.89340   0.73240   0.01267  Uiso   1.00
C3     C     0.19680   0.02240   0.88800   0.01267  Uiso   1.00
C4     C     0.87130   0.69010   0.64310   0.01267  Uiso   1.00
C5     C     0.97270   0.01650   0.76060   0.01267  Uiso   1.00
C6     C     0.89790   0.75260   0.49990   0.01267  Uiso   1.00
C7     C     0.65600   0.32760   0.40660   0.01267  Uiso   1.00
C8     C     0.70110   0.27400   0.54590   0.01267  Uiso   1.00
C9     C     0.31840   0.90500   0.80170   0.01267  Uiso   1.00
C10    C     0.53170   0.94730   0.47220   0.01267  Uiso   1.00
C11    C     0.18340   0.10660   0.26760   0.01267  Uiso   1.00
C12    C     0.80320   0.97760   0.11200   0.01267  Uiso   1.00
C13    C     0.12870   0.30990   0.35690   0.01267  Uiso   1.00
C14    C     0.02730   0.98350   0.23940   0.01267  Uiso   1.00
C15    C     0.10210   0.24740   0.50010   0.01267  Uiso   1.00
C16    C     0.34400   0.67240   0.59340   0.01267  Uiso   1.00
C17    C     0.29890   0.72600   0.45410   0.01267  Uiso   1.00
C18    C     0.68160   0.09500   0.19830   0.01267  Uiso   1.00
N1     N     0.53160   0.21610   0.41050   0.01267  Uiso   1.00
N2     N     0.32420   0.97220   0.89360   0.01267  Uiso   1.00
N3     N     0.84350   0.80520   0.64590   0.01267  Uiso   1.00
N4     N     0.12140   0.98690   0.79850   0.01267  Uiso   1.00
N5     N     0.56450   0.18210   0.50000   0.01267  Uiso   1.00
N6     N     0.76540   0.36760   0.48850   0.01267  Uiso   1.00
N7     N     0.90830   0.65030   0.54810   0.01267  Uiso   1.00
N8     N     0.19860   0.91090   0.73760   0.01267  Uiso   1.00
N9     N     0.86080   0.85050   0.55810   0.01267  Uiso   1.00
N10    N     0.46840   0.78390   0.58950   0.01267  Uiso   1.00
N11    N     0.67580   0.02780   0.10640   0.01267  Uiso   1.00
N12    N     0.15650   0.19480   0.35410   0.01267  Uiso   1.00
N13    N     0.87860   0.01310   0.20150   0.01267  Uiso   1.00
N14    N     0.43550   0.81790   0.50000   0.01267  Uiso   1.00
N15    N     0.23460   0.63240   0.51150   0.01267  Uiso   1.00
N16    N     0.09170   0.34970   0.45190   0.01267  Uiso   1.00
N17    N     0.80140   0.08910   0.26240   0.01267  Uiso   1.00
N18    N     0.13920   0.14950   0.44190   0.01267  Uiso   1.00
