data_WAMRIN02_clean
_audit_creation_date              2014-07-02
_audit_creation_method            'Materials Studio'
_symmetry_space_group_name_H-M    'P1'
_symmetry_Int_Tables_number       1
_symmetry_cell_setting            triclinic
loop_
_symmetry_equiv_pos_as_xyz
  x,y,z
_cell_length_a                    13.3890
_cell_length_b                    14.4840
_cell_length_c                    14.7094
_cell_angle_alpha                 91.4919
_cell_angle_beta                  90.0000
_cell_angle_gamma                 90.0000
loop_
_atom_site_label
_atom_site_type_symbol
_atom_site_fract_x
_atom_site_fract_y
_atom_site_fract_z
_atom_site_U_iso_or_equiv
_atom_site_adp_type
_atom_site_occupancy
Mg1    Mg    0.94059   0.75790   0.00609   0.01267  Uiso   1.00
Mg2    Mg    0.44059   0.74210   0.49391   0.01267  Uiso   1.00
Mg3    Mg    0.05941   0.24210   0.99391   0.01267  Uiso   1.00
Mg4    Mg    0.55941   0.25790   0.50609   0.01267  Uiso   1.00
Mg5    Mg    0.00000   0.00000   0.00000   0.01267  Uiso   1.00
Mg6    Mg    0.50000   0.50000   0.50000   0.01267  Uiso   1.00
H1     H     0.61110   0.68250   0.59300   0.01267  Uiso   1.00
H2     H     0.57380   0.13730   0.33270   0.01267  Uiso   1.00
H3     H     0.60520   0.15450   0.24400   0.01267  Uiso   1.00
H4     H     0.71010   0.15890   0.73950   0.01267  Uiso   1.00
H5     H     0.61150   0.13950   0.69040   0.01267  Uiso   1.00
H6     H     0.76370   0.07060   0.18630   0.01267  Uiso   1.00
H7     H     0.56430   0.97510   0.36450   0.01267  Uiso   1.00
H8     H     0.74030   0.79790   0.22420   0.01267  Uiso   1.00
H9     H     0.74220   0.78210   0.75910   0.01267  Uiso   1.00
H10    H     0.59700   0.97780   0.62320   0.01267  Uiso   1.00
H11    H     0.79670   0.04990   0.81520   0.01267  Uiso   1.00
H12    H     0.08070   0.84940   0.06070   0.01267  Uiso   1.00
H13    H     0.09160   0.84570   0.97000   0.01267  Uiso   1.00
H14    H     0.11110   0.81750   0.90700   0.01267  Uiso   1.00
H15    H     0.07380   0.36270   0.16730   0.01267  Uiso   1.00
H16    H     0.10520   0.34550   0.25600   0.01267  Uiso   1.00
H17    H     0.21010   0.34110   0.76050   0.01267  Uiso   1.00
H18    H     0.11150   0.36050   0.80960   0.01267  Uiso   1.00
H19    H     0.26370   0.42940   0.31370   0.01267  Uiso   1.00
H20    H     0.06430   0.52490   0.13550   0.01267  Uiso   1.00
H21    H     0.24030   0.70210   0.27580   0.01267  Uiso   1.00
H22    H     0.24220   0.71790   0.74090   0.01267  Uiso   1.00
H23    H     0.09700   0.52220   0.87680   0.01267  Uiso   1.00
H24    H     0.29670   0.45010   0.68480   0.01267  Uiso   1.00
H25    H     0.58070   0.65060   0.43930   0.01267  Uiso   1.00
H26    H     0.59160   0.65430   0.53000   0.01267  Uiso   1.00
H27    H     0.38890   0.31750   0.40700   0.01267  Uiso   1.00
H28    H     0.42620   0.86270   0.66730   0.01267  Uiso   1.00
H29    H     0.39480   0.84550   0.75600   0.01267  Uiso   1.00
H30    H     0.28990   0.84110   0.26050   0.01267  Uiso   1.00
H31    H     0.38850   0.86050   0.30960   0.01267  Uiso   1.00
H32    H     0.23630   0.92940   0.81370   0.01267  Uiso   1.00
H33    H     0.43570   0.02490   0.63550   0.01267  Uiso   1.00
H34    H     0.25970   0.20210   0.77580   0.01267  Uiso   1.00
H35    H     0.25780   0.21790   0.24090   0.01267  Uiso   1.00
H36    H     0.40300   0.02220   0.37680   0.01267  Uiso   1.00
H37    H     0.20330   0.95010   0.18480   0.01267  Uiso   1.00
H38    H     0.91930   0.15060   0.93930   0.01267  Uiso   1.00
H39    H     0.90840   0.15430   0.03000   0.01267  Uiso   1.00
H40    H     0.88890   0.18250   0.09300   0.01267  Uiso   1.00
H41    H     0.92620   0.63730   0.83270   0.01267  Uiso   1.00
H42    H     0.89480   0.65450   0.74400   0.01267  Uiso   1.00
H43    H     0.78990   0.65890   0.23950   0.01267  Uiso   1.00
H44    H     0.88850   0.63950   0.19040   0.01267  Uiso   1.00
H45    H     0.73630   0.57060   0.68630   0.01267  Uiso   1.00
H46    H     0.93570   0.47510   0.86450   0.01267  Uiso   1.00
H47    H     0.75970   0.29790   0.72420   0.01267  Uiso   1.00
H48    H     0.75780   0.28210   0.25910   0.01267  Uiso   1.00
H49    H     0.90300   0.47780   0.12320   0.01267  Uiso   1.00
H50    H     0.70330   0.54990   0.31520   0.01267  Uiso   1.00
H51    H     0.41930   0.34940   0.56070   0.01267  Uiso   1.00
H52    H     0.40840   0.34570   0.47000   0.01267  Uiso   1.00
C1     C     0.84613   0.91249   0.12465   0.01267  Uiso   1.00
C2     C     0.76470   0.93083   0.19423   0.01267  Uiso   1.00
C3     C     0.73382   0.02083   0.21435   0.01267  Uiso   1.00
C4     C     0.65817   0.03492   0.27665   0.01267  Uiso   1.00
C5     C     0.61410   0.96336   0.32167   0.01267  Uiso   1.00
C6     C     0.64512   0.87312   0.30228   0.01267  Uiso   1.00
C7     C     0.59826   0.79327   0.35086   0.01267  Uiso   1.00
C8     C     0.71990   0.85800   0.23804   0.01267  Uiso   1.00
C9     C     0.85493   0.88877   0.87119   0.01267  Uiso   1.00
C10    C     0.78077   0.91187   0.79837   0.01267  Uiso   1.00
C11    C     0.73005   0.84417   0.74852   0.01267  Uiso   1.00
C12    C     0.66120   0.86871   0.68284   0.01267  Uiso   1.00
C13    C     0.60859   0.79507   0.62753   0.01267  Uiso   1.00
C14    C     0.64283   0.96138   0.66745   0.01267  Uiso   1.00
C15    C     0.69227   0.02968   0.71763   0.01267  Uiso   1.00
C16    C     0.76210   0.00443   0.78234   0.01267  Uiso   1.00
C17    C     0.34613   0.58751   0.37535   0.01267  Uiso   1.00
C18    C     0.26470   0.56917   0.30577   0.01267  Uiso   1.00
C19    C     0.23382   0.47917   0.28565   0.01267  Uiso   1.00
C20    C     0.15817   0.46508   0.22335   0.01267  Uiso   1.00
C21    C     0.11410   0.53664   0.17833   0.01267  Uiso   1.00
C22    C     0.14512   0.62688   0.19772   0.01267  Uiso   1.00
C23    C     0.09826   0.70673   0.14914   0.01267  Uiso   1.00
C24    C     0.21990   0.64200   0.26196   0.01267  Uiso   1.00
C25    C     0.35493   0.61123   0.62881   0.01267  Uiso   1.00
C26    C     0.28077   0.58813   0.70163   0.01267  Uiso   1.00
C27    C     0.23005   0.65583   0.75148   0.01267  Uiso   1.00
C28    C     0.16120   0.63129   0.81716   0.01267  Uiso   1.00
C29    C     0.10859   0.70493   0.87247   0.01267  Uiso   1.00
C30    C     0.14283   0.53862   0.83255   0.01267  Uiso   1.00
C31    C     0.19227   0.47032   0.78237   0.01267  Uiso   1.00
C32    C     0.26210   0.49557   0.71766   0.01267  Uiso   1.00
C33    C     0.15387   0.08751   0.87535   0.01267  Uiso   1.00
C34    C     0.23530   0.06917   0.80577   0.01267  Uiso   1.00
C35    C     0.26618   0.97917   0.78565   0.01267  Uiso   1.00
C36    C     0.34183   0.96508   0.72335   0.01267  Uiso   1.00
C37    C     0.38590   0.03664   0.67833   0.01267  Uiso   1.00
C38    C     0.35488   0.12688   0.69772   0.01267  Uiso   1.00
C39    C     0.40174   0.20673   0.64914   0.01267  Uiso   1.00
C40    C     0.28010   0.14200   0.76196   0.01267  Uiso   1.00
C41    C     0.14507   0.11123   0.12881   0.01267  Uiso   1.00
C42    C     0.21923   0.08813   0.20163   0.01267  Uiso   1.00
C43    C     0.26995   0.15583   0.25148   0.01267  Uiso   1.00
C44    C     0.33880   0.13129   0.31716   0.01267  Uiso   1.00
C45    C     0.39141   0.20493   0.37247   0.01267  Uiso   1.00
C46    C     0.35717   0.03862   0.33255   0.01267  Uiso   1.00
C47    C     0.30773   0.97032   0.28237   0.01267  Uiso   1.00
C48    C     0.23790   0.99557   0.21766   0.01267  Uiso   1.00
C49    C     0.65387   0.41249   0.62465   0.01267  Uiso   1.00
C50    C     0.73530   0.43083   0.69423   0.01267  Uiso   1.00
C51    C     0.76618   0.52083   0.71435   0.01267  Uiso   1.00
C52    C     0.84183   0.53492   0.77665   0.01267  Uiso   1.00
C53    C     0.88590   0.46336   0.82167   0.01267  Uiso   1.00
C54    C     0.85488   0.37312   0.80228   0.01267  Uiso   1.00
C55    C     0.90174   0.29327   0.85086   0.01267  Uiso   1.00
C56    C     0.78010   0.35800   0.73804   0.01267  Uiso   1.00
C57    C     0.64507   0.38877   0.37119   0.01267  Uiso   1.00
C58    C     0.71923   0.41187   0.29837   0.01267  Uiso   1.00
C59    C     0.76995   0.34417   0.24852   0.01267  Uiso   1.00
C60    C     0.83880   0.36871   0.18284   0.01267  Uiso   1.00
C61    C     0.89141   0.29507   0.12753   0.01267  Uiso   1.00
C62    C     0.85717   0.46138   0.16745   0.01267  Uiso   1.00
C63    C     0.80773   0.52968   0.21763   0.01267  Uiso   1.00
C64    C     0.73790   0.50443   0.28234   0.01267  Uiso   1.00
N1     N     0.62383   0.12990   0.29402   0.01267  Uiso   1.00
N2     N     0.67638   0.12378   0.70031   0.01267  Uiso   1.00
N3     N     0.12383   0.37010   0.20598   0.01267  Uiso   1.00
N4     N     0.17638   0.37622   0.79969   0.01267  Uiso   1.00
N5     N     0.37617   0.87010   0.70598   0.01267  Uiso   1.00
N6     N     0.32362   0.87622   0.29969   0.01267  Uiso   1.00
N7     N     0.87617   0.62990   0.79402   0.01267  Uiso   1.00
N8     N     0.82362   0.62378   0.20031   0.01267  Uiso   1.00
O1     O     0.85797   0.83037   0.09905   0.01267  Uiso   1.00
O2     O     0.89435   0.98086   0.09880   0.01267  Uiso   1.00
O3     O     0.05313   0.86361   0.01120   0.01267  Uiso   1.00
O4     O     0.64418   0.71814   0.34963   0.01267  Uiso   1.00
O5     O     0.51608   0.80916   0.39006   0.01267  Uiso   1.00
O6     O     0.86323   0.80574   0.89404   0.01267  Uiso   1.00
O7     O     0.90334   0.95462   0.90423   0.01267  Uiso   1.00
O8     O     0.64568   0.71705   0.62496   0.01267  Uiso   1.00
O9     O     0.52858   0.81829   0.58742   0.01267  Uiso   1.00
O10    O     0.35797   0.66963   0.40095   0.01267  Uiso   1.00
O11    O     0.39435   0.51914   0.40120   0.01267  Uiso   1.00
O12    O     0.55313   0.63639   0.48880   0.01267  Uiso   1.00
O13    O     0.14418   0.78186   0.15037   0.01267  Uiso   1.00
O14    O     0.01608   0.69084   0.10994   0.01267  Uiso   1.00
O15    O     0.36323   0.69426   0.60596   0.01267  Uiso   1.00
O16    O     0.40334   0.54538   0.59577   0.01267  Uiso   1.00
O17    O     0.14568   0.78295   0.87504   0.01267  Uiso   1.00
O18    O     0.02858   0.68171   0.91258   0.01267  Uiso   1.00
O19    O     0.14203   0.16963   0.90095   0.01267  Uiso   1.00
O20    O     0.10565   0.01914   0.90120   0.01267  Uiso   1.00
O21    O     0.94687   0.13639   0.98880   0.01267  Uiso   1.00
O22    O     0.35582   0.28186   0.65037   0.01267  Uiso   1.00
O23    O     0.48392   0.19084   0.60994   0.01267  Uiso   1.00
O24    O     0.13677   0.19426   0.10596   0.01267  Uiso   1.00
O25    O     0.09666   0.04538   0.09577   0.01267  Uiso   1.00
O26    O     0.35432   0.28295   0.37504   0.01267  Uiso   1.00
O27    O     0.47142   0.18171   0.41258   0.01267  Uiso   1.00
O28    O     0.64203   0.33037   0.59905   0.01267  Uiso   1.00
O29    O     0.60565   0.48086   0.59880   0.01267  Uiso   1.00
O30    O     0.44687   0.36361   0.51120   0.01267  Uiso   1.00
O31    O     0.85582   0.21814   0.84963   0.01267  Uiso   1.00
O32    O     0.98392   0.30916   0.89006   0.01267  Uiso   1.00
O33    O     0.63677   0.30574   0.39404   0.01267  Uiso   1.00
O34    O     0.59666   0.45462   0.40423   0.01267  Uiso   1.00
O35    O     0.85432   0.21705   0.12496   0.01267  Uiso   1.00
O36    O     0.97142   0.31829   0.08742   0.01267  Uiso   1.00
