data_WAYMEQ_clean_h
_audit_creation_date              2014-07-02
_audit_creation_method            'Materials Studio'
_symmetry_space_group_name_H-M    'P1'
_symmetry_Int_Tables_number       1
_symmetry_cell_setting            triclinic
loop_
_symmetry_equiv_pos_as_xyz
  x,y,z
_cell_length_a                    6.6125
_cell_length_b                    11.0337
_cell_length_c                    11.0337
_cell_angle_alpha                 70.3612
_cell_angle_beta                  72.5635
_cell_angle_gamma                 72.5635
loop_
_atom_site_label
_atom_site_type_symbol
_atom_site_fract_x
_atom_site_fract_y
_atom_site_fract_z
_atom_site_U_iso_or_equiv
_atom_site_adp_type
_atom_site_occupancy
Al1    Al    0.75000   0.75000   0.25000   0.01267  Uiso   1.00
Al2    Al    0.25000   0.75000   0.25000   0.01267  Uiso   1.00
C1     C     0.50670   0.30880   0.28180   0.01267  Uiso   1.00
C2     C     0.58370   0.17050   0.26570   0.01267  Uiso   1.00
C3     C     0.49330   0.71820   0.69120   0.01267  Uiso   1.00
C4     C     0.41630   0.73430   0.82950   0.01267  Uiso   1.00
C5     C     0.09730   0.71820   0.69120   0.01267  Uiso   1.00
C6     C     0.01990   0.73430   0.82950   0.01267  Uiso   1.00
C7     C     0.90270   0.30880   0.28180   0.01267  Uiso   1.00
C8     C     0.98010   0.17050   0.26570   0.01267  Uiso   1.00
C9     C     0.80540   0.12840   0.26080   0.01267  Uiso   1.00
C10    C     0.68140   0.35060   0.28660   0.01267  Uiso   1.00
C11    C     0.87890   0.98990   0.25230   0.01267  Uiso   1.00
C12    C     0.61400   0.49420   0.27780   0.01267  Uiso   1.00
C13    C     0.19460   0.73920   0.87160   0.01267  Uiso   1.00
C14    C     0.31860   0.71340   0.64940   0.01267  Uiso   1.00
C15    C     0.12110   0.74770   0.01010   0.01267  Uiso   1.00
C16    C     0.38600   0.72220   0.50580   0.01267  Uiso   1.00
O1     O     0.72760   0.57600   0.27160   0.01267  Uiso   1.00
O2     O     0.07410   0.92300   0.25340   0.01267  Uiso   1.00
O3     O     0.27240   0.72840   0.42400   0.01267  Uiso   1.00
O4     O     0.92590   0.74660   0.07700   0.01267  Uiso   1.00
O5     O     0.57520   0.72840   0.42400   0.01267  Uiso   1.00
O6     O     0.25050   0.74660   0.07700   0.01267  Uiso   1.00
O7     O     0.42480   0.57600   0.27160   0.01267  Uiso   1.00
O8     O     0.74950   0.92300   0.25340   0.01267  Uiso   1.00
O9     O     0.00000   0.69210   0.30790   0.01267  Uiso   1.00
O10    O     0.50000   0.80730   0.19270   0.01267  Uiso   1.00
H1     H     0.32828   0.36105   0.28793   0.01267  Uiso   1.00
H2     H     0.46341   0.11839   0.25963   0.01267  Uiso   1.00
H3     H     0.67172   0.71207   0.63895   0.01267  Uiso   1.00
H4     H     0.53659   0.74037   0.88161   0.01267  Uiso   1.00
H5     H     0.97726   0.71207   0.63895   0.01267  Uiso   1.00
H6     H     0.84143   0.74037   0.88161   0.01267  Uiso   1.00
H7     H     0.02274   0.36105   0.28793   0.01267  Uiso   1.00
H8     H     0.15857   0.11839   0.25963   0.01267  Uiso   1.00
