data_WAZQIZ_clean
_audit_creation_date              2014-07-02
_audit_creation_method            'Materials Studio'
_symmetry_space_group_name_H-M    'P1'
_symmetry_Int_Tables_number       1
_symmetry_cell_setting            triclinic
loop_
_symmetry_equiv_pos_as_xyz
  x,y,z
_cell_length_a                    11.3380
_cell_length_b                    11.4460
_cell_length_c                    22.4200
_cell_angle_alpha                 102.2500
_cell_angle_beta                  99.2470
_cell_angle_gamma                 103.5240
loop_
_atom_site_label
_atom_site_type_symbol
_atom_site_fract_x
_atom_site_fract_y
_atom_site_fract_z
_atom_site_U_iso_or_equiv
_atom_site_adp_type
_atom_site_occupancy
Eu1    Eu    0.20686   0.56639   0.53353   0.01267  Uiso   1.00
Eu2    Eu    0.94883   0.28827   0.97481   0.01267  Uiso   1.00
Eu3    Eu    0.79314   0.43361   0.46647   0.01267  Uiso   1.00
Eu4    Eu    0.05117   0.71173   0.02519   0.01267  Uiso   1.00
B1     B     0.06500   0.63400   0.30900   0.01267  Uiso   1.00
B2     B     0.16200   0.53500   0.29900   0.01267  Uiso   1.00
B3     B     0.10400   0.39100   0.28070   0.01267  Uiso   1.00
B4     B     0.94000   0.36200   0.26310   0.01267  Uiso   1.00
B5     B     0.91400   0.51900   0.28600   0.01267  Uiso   1.00
B6     B     0.96300   0.59900   0.23150   0.01267  Uiso   1.00
B7     B     0.13000   0.64100   0.24700   0.01267  Uiso   1.00
B8     B     0.16100   0.48100   0.22490   0.01267  Uiso   1.00
B9     B     0.01400   0.36000   0.19700   0.01267  Uiso   1.00
B10    B     0.90000   0.44500   0.20430   0.01267  Uiso   1.00
B11    B     0.59300   0.86600   0.70100   0.01267  Uiso   1.00
B12    B     0.47800   0.93500   0.73800   0.01267  Uiso   1.00
B13    B     0.40900   0.83900   0.77700   0.01267  Uiso   1.00
B14    B     0.48000   0.72200   0.78000   0.01267  Uiso   1.00
B15    B     0.59000   0.71500   0.73600   0.01267  Uiso   1.00
B16    B     0.63600   0.01000   0.78200   0.01267  Uiso   1.00
B17    B     0.51900   0.97500   0.81990   0.01267  Uiso   1.00
B18    B     0.51700   0.84300   0.84160   0.01267  Uiso   1.00
B19    B     0.63100   0.77000   0.81200   0.01267  Uiso   1.00
B20    B     0.71200   0.87500   0.77600   0.01267  Uiso   1.00
B21    B     0.12300   0.97300   0.54310   0.01267  Uiso   1.00
B22    B     0.10300   0.94700   0.46630   0.01267  Uiso   1.00
B23    B     0.94200   0.89900   0.42780   0.01267  Uiso   1.00
B24    B     0.86000   0.90400   0.48410   0.01267  Uiso   1.00
B25    B     0.96300   0.95800   0.56500   0.01267  Uiso   1.00
B26    B     0.61900   0.58800   0.06600   0.01267  Uiso   1.00
B27    B     0.60220   0.61980   0.98330   0.01267  Uiso   1.00
B28    B     0.53700   0.50200   0.93210   0.01267  Uiso   1.00
B29    B     0.51800   0.36900   0.95400   0.01267  Uiso   1.00
B30    B     0.55900   0.41200   0.04380   0.01267  Uiso   1.00
B31    B     0.93500   0.36600   0.69100   0.01267  Uiso   1.00
B32    B     0.83800   0.46500   0.70100   0.01267  Uiso   1.00
B33    B     0.89600   0.60900   0.71930   0.01267  Uiso   1.00
B34    B     0.06000   0.63800   0.73690   0.01267  Uiso   1.00
B35    B     0.08600   0.48100   0.71400   0.01267  Uiso   1.00
B36    B     0.03700   0.40100   0.76850   0.01267  Uiso   1.00
B37    B     0.87000   0.35900   0.75300   0.01267  Uiso   1.00
B38    B     0.83900   0.51900   0.77510   0.01267  Uiso   1.00
B39    B     0.98600   0.64000   0.80300   0.01267  Uiso   1.00
B40    B     0.10000   0.55500   0.79570   0.01267  Uiso   1.00
B41    B     0.40700   0.13400   0.29900   0.01267  Uiso   1.00
B42    B     0.52200   0.06500   0.26200   0.01267  Uiso   1.00
B43    B     0.59100   0.16100   0.22300   0.01267  Uiso   1.00
B44    B     0.52000   0.27800   0.22000   0.01267  Uiso   1.00
B45    B     0.41000   0.28500   0.26400   0.01267  Uiso   1.00
B46    B     0.36400   0.99000   0.21800   0.01267  Uiso   1.00
B47    B     0.48100   0.02500   0.18010   0.01267  Uiso   1.00
B48    B     0.48300   0.15700   0.15840   0.01267  Uiso   1.00
B49    B     0.36900   0.23000   0.18800   0.01267  Uiso   1.00
B50    B     0.28800   0.12500   0.22400   0.01267  Uiso   1.00
B51    B     0.87700   0.02700   0.45690   0.01267  Uiso   1.00
B52    B     0.89700   0.05300   0.53370   0.01267  Uiso   1.00
B53    B     0.05800   0.10100   0.57220   0.01267  Uiso   1.00
B54    B     0.14000   0.09600   0.51590   0.01267  Uiso   1.00
B55    B     0.03700   0.04200   0.43500   0.01267  Uiso   1.00
B56    B     0.38100   0.41200   0.93400   0.01267  Uiso   1.00
B57    B     0.39780   0.38020   0.01670   0.01267  Uiso   1.00
B58    B     0.46300   0.49800   0.06790   0.01267  Uiso   1.00
B59    B     0.48200   0.63100   0.04600   0.01267  Uiso   1.00
B60    B     0.44100   0.58800   0.95620   0.01267  Uiso   1.00
H1     H     0.08990   0.72220   0.34550   0.01267  Uiso   1.00
H2     H     0.25280   0.55630   0.33110   0.01267  Uiso   1.00
H3     H     0.14970   0.32760   0.29950   0.01267  Uiso   1.00
H4     H     0.87970   0.27630   0.26810   0.01267  Uiso   1.00
H5     H     0.83690   0.53360   0.30760   0.01267  Uiso   1.00
H6     H     0.91220   0.66100   0.21510   0.01267  Uiso   1.00
H7     H     0.18750   0.73040   0.24350   0.01267  Uiso   1.00
H8     H     0.24230   0.47370   0.20520   0.01267  Uiso   1.00
H9     H     0.00120   0.27420   0.16080   0.01267  Uiso   1.00
H10    H     0.80940   0.41130   0.17060   0.01267  Uiso   1.00
H11    H     0.61370   0.87390   0.65530   0.01267  Uiso   1.00
H12    H     0.42560   0.98440   0.71210   0.01267  Uiso   1.00
H13    H     0.30850   0.82460   0.77430   0.01267  Uiso   1.00
H14    H     0.42150   0.63440   0.78480   0.01267  Uiso   1.00
H15    H     0.60720   0.62740   0.71300   0.01267  Uiso   1.00
H16    H     0.68580   0.10790   0.78720   0.01267  Uiso   1.00
H17    H     0.49380   0.05160   0.84900   0.01267  Uiso   1.00
H18    H     0.49080   0.83640   0.88620   0.01267  Uiso   1.00
H19    H     0.68080   0.71470   0.83590   0.01267  Uiso   1.00
H20    H     0.81100   0.89340   0.77560   0.01267  Uiso   1.00
H21    H     0.20310   0.94950   0.56780   0.01267  Uiso   1.00
H22    H     0.17100   0.91050   0.44360   0.01267  Uiso   1.00
H23    H     0.90510   0.83340   0.38130   0.01267  Uiso   1.00
H24    H     0.76900   0.83470   0.47090   0.01267  Uiso   1.00
H25    H     0.93890   0.93270   0.60720   0.01267  Uiso   1.00
H26    H     0.69340   0.64800   0.10590   0.01267  Uiso   1.00
H27    H     0.66810   0.69300   0.97090   0.01267  Uiso   1.00
H28    H     0.56130   0.50410   0.88670   0.01267  Uiso   1.00
H29    H     0.53110   0.28690   0.92300   0.01267  Uiso   1.00
H30    H     0.59710   0.35200   0.06920   0.01267  Uiso   1.00
H31    H     0.91010   0.27780   0.65450   0.01267  Uiso   1.00
H32    H     0.74720   0.44370   0.66890   0.01267  Uiso   1.00
H33    H     0.85030   0.67240   0.70050   0.01267  Uiso   1.00
H34    H     0.12030   0.72370   0.73190   0.01267  Uiso   1.00
H35    H     0.16310   0.46640   0.69240   0.01267  Uiso   1.00
H36    H     0.08780   0.33900   0.78490   0.01267  Uiso   1.00
H37    H     0.81250   0.26960   0.75650   0.01267  Uiso   1.00
H38    H     0.75770   0.52630   0.79480   0.01267  Uiso   1.00
H39    H     0.99880   0.72580   0.83920   0.01267  Uiso   1.00
H40    H     0.19060   0.58870   0.82940   0.01267  Uiso   1.00
H41    H     0.38630   0.12610   0.34470   0.01267  Uiso   1.00
H42    H     0.57440   0.01560   0.28790   0.01267  Uiso   1.00
H43    H     0.69150   0.17540   0.22570   0.01267  Uiso   1.00
H44    H     0.57850   0.36560   0.21520   0.01267  Uiso   1.00
H45    H     0.39280   0.37260   0.28700   0.01267  Uiso   1.00
H46    H     0.31420   0.89210   0.21280   0.01267  Uiso   1.00
H47    H     0.50620   0.94840   0.15100   0.01267  Uiso   1.00
H48    H     0.50920   0.16360   0.11380   0.01267  Uiso   1.00
H49    H     0.31920   0.28530   0.16410   0.01267  Uiso   1.00
H50    H     0.18900   0.10660   0.22440   0.01267  Uiso   1.00
H51    H     0.79690   0.05050   0.43220   0.01267  Uiso   1.00
H52    H     0.82900   0.08950   0.55640   0.01267  Uiso   1.00
H53    H     0.09490   0.16660   0.61870   0.01267  Uiso   1.00
H54    H     0.23100   0.16530   0.52910   0.01267  Uiso   1.00
H55    H     0.06110   0.06730   0.39280   0.01267  Uiso   1.00
H56    H     0.30660   0.35200   0.89410   0.01267  Uiso   1.00
H57    H     0.33190   0.30700   0.02910   0.01267  Uiso   1.00
H58    H     0.43870   0.49590   0.11330   0.01267  Uiso   1.00
H59    H     0.46890   0.71310   0.07700   0.01267  Uiso   1.00
H60    H     0.40290   0.64800   0.93080   0.01267  Uiso   1.00
C1     C     0.03400   0.48400   0.31980   0.01267  Uiso   1.00
C2     C     0.03100   0.50700   0.18620   0.01267  Uiso   1.00
C3     C     0.04700   0.48300   0.39400   0.01267  Uiso   1.00
C4     C     0.02600   0.51600   0.11580   0.01267  Uiso   1.00
C5     C     0.47200   0.77400   0.71390   0.01267  Uiso   1.00
C6     C     0.65600   0.93000   0.83950   0.01267  Uiso   1.00
C7     C     0.36900   0.70500   0.65340   0.01267  Uiso   1.00
C8     C     0.74300   0.00000   0.89650   0.01267  Uiso   1.00
C9     C     0.99100   0.86200   0.49960   0.01267  Uiso   1.00
C10    C     0.99300   0.72900   0.50070   0.01267  Uiso   1.00
C11    C     0.63000   0.49200   0.99700   0.01267  Uiso   1.00
C12    C     0.76800   0.48400   0.99430   0.01267  Uiso   1.00
C13    C     0.96600   0.51600   0.68020   0.01267  Uiso   1.00
C14    C     0.96900   0.49300   0.81380   0.01267  Uiso   1.00
C15    C     0.95300   0.51700   0.60600   0.01267  Uiso   1.00
C16    C     0.97400   0.48400   0.88420   0.01267  Uiso   1.00
C17    C     0.52800   0.22600   0.28610   0.01267  Uiso   1.00
C18    C     0.34400   0.07000   0.16050   0.01267  Uiso   1.00
C19    C     0.63100   0.29500   0.34660   0.01267  Uiso   1.00
C20    C     0.25700   0.00000   0.10350   0.01267  Uiso   1.00
C21    C     0.00900   0.13800   0.50040   0.01267  Uiso   1.00
C22    C     0.00700   0.27100   0.49930   0.01267  Uiso   1.00
C23    C     0.37000   0.50800   0.00300   0.01267  Uiso   1.00
C24    C     0.23200   0.51600   0.00570   0.01267  Uiso   1.00
O1     O     0.14850   0.50910   0.42480   0.01267  Uiso   1.00
O2     O     0.94000   0.44900   0.40360   0.01267  Uiso   1.00
O3     O     0.98800   0.41300   0.07820   0.01267  Uiso   1.00
O4     O     0.05600   0.62000   0.11020   0.01267  Uiso   1.00
O5     O     0.36600   0.58350   0.63060   0.01267  Uiso   1.00
O6     O     0.30400   0.75390   0.62580   0.01267  Uiso   1.00
O7     O     0.77500   0.95700   0.94120   0.01267  Uiso   1.00
O8     O     0.79100   0.12100   0.90010   0.01267  Uiso   1.00
O9     O     0.09280   0.70340   0.50840   0.01267  Uiso   1.00
O10    O     0.89150   0.65010   0.48410   0.01267  Uiso   1.00
O11    O     0.77810   0.37600   0.98120   0.01267  Uiso   1.00
O12    O     0.85080   0.58800   0.01020   0.01267  Uiso   1.00
O13    O     0.85150   0.49090   0.57520   0.01267  Uiso   1.00
O14    O     0.06000   0.55100   0.59640   0.01267  Uiso   1.00
O15    O     0.01200   0.58700   0.92180   0.01267  Uiso   1.00
O16    O     0.94400   0.38000   0.88980   0.01267  Uiso   1.00
O17    O     0.63400   0.41650   0.36940   0.01267  Uiso   1.00
O18    O     0.69600   0.24610   0.37420   0.01267  Uiso   1.00
O19    O     0.22500   0.04300   0.05880   0.01267  Uiso   1.00
O20    O     0.20900   0.87900   0.09990   0.01267  Uiso   1.00
O21    O     0.90720   0.29660   0.49160   0.01267  Uiso   1.00
O22    O     0.10850   0.34990   0.51590   0.01267  Uiso   1.00
O23    O     0.22190   0.62400   0.01880   0.01267  Uiso   1.00
O24    O     0.14920   0.41200   0.98980   0.01267  Uiso   1.00
