data_WEBKIZ_clean
_audit_creation_date              2014-07-02
_audit_creation_method            'Materials Studio'
_symmetry_space_group_name_H-M    'P1'
_symmetry_Int_Tables_number       1
_symmetry_cell_setting            triclinic
loop_
_symmetry_equiv_pos_as_xyz
  x,y,z
_cell_length_a                    17.1540
_cell_length_b                    18.2541
_cell_length_c                    18.2541
_cell_angle_alpha                 77.2454
_cell_angle_beta                  61.9743
_cell_angle_gamma                 61.9743
loop_
_atom_site_label
_atom_site_type_symbol
_atom_site_fract_x
_atom_site_fract_y
_atom_site_fract_z
_atom_site_U_iso_or_equiv
_atom_site_adp_type
_atom_site_occupancy
In1    In    0.13956   0.89882   0.50318   0.01267  Uiso   1.00
In2    In    0.54156   0.10118   0.49682   0.01267  Uiso   1.00
In3    In    0.35726   0.50318   0.10118   0.01267  Uiso   1.00
In4    In    0.96162   0.49682   0.89882   0.01267  Uiso   1.00
In5    In    0.75000   0.50000   0.50000   0.01267  Uiso   1.00
Co1    Co    0.50000   0.00000   0.00000   0.01267  Uiso   1.00
H1     H     0.62330   0.79030   0.52730   0.01267  Uiso   1.00
H2     H     0.43770   0.71600   0.53120   0.01267  Uiso   1.00
H3     H     0.35870   0.95510   0.54410   0.01267  Uiso   1.00
H4     H     0.77470   0.78000   0.89580   0.01267  Uiso   1.00
H5     H     0.03700   0.71720   0.71080   0.01267  Uiso   1.00
H6     H     0.85810   0.95880   0.76340   0.01267  Uiso   1.00
H7     H     0.94090   0.20970   0.47270   0.01267  Uiso   1.00
H8     H     0.68490   0.28400   0.46880   0.01267  Uiso   1.00
H9     H     0.85790   0.04490   0.45590   0.01267  Uiso   1.00
H10    H     0.45050   0.22000   0.10420   0.01267  Uiso   1.00
H11    H     0.46500   0.28280   0.28920   0.01267  Uiso   1.00
H12    H     0.58030   0.04120   0.23660   0.01267  Uiso   1.00
H13    H     0.84940   0.52730   0.20970   0.01267  Uiso   1.00
H14    H     0.03110   0.53120   0.28400   0.01267  Uiso   1.00
H15    H     0.09720   0.54410   0.04490   0.01267  Uiso   1.00
H16    H     0.32950   0.89580   0.22000   0.01267  Uiso   1.00
H17    H     0.25220   0.71080   0.28280   0.01267  Uiso   1.00
H18    H     0.37850   0.76340   0.04120   0.01267  Uiso   1.00
H19    H     0.58640   0.47270   0.79030   0.01267  Uiso   1.00
H20    H     0.84630   0.46880   0.71600   0.01267  Uiso   1.00
H21    H     0.68620   0.45590   0.95510   0.01267  Uiso   1.00
H22    H     0.44530   0.10420   0.78000   0.01267  Uiso   1.00
H23    H     0.24580   0.28920   0.71720   0.01267  Uiso   1.00
H24    H     0.18310   0.23660   0.95880   0.01267  Uiso   1.00
C1     C     0.54520   0.74040   0.52260   0.01267  Uiso   1.00
C2     C     0.56540   0.80210   0.52530   0.01267  Uiso   1.00
C3     C     0.39020   0.84310   0.52630   0.01267  Uiso   1.00
C4     C     0.91690   0.65360   0.85260   0.01267  Uiso   1.00
C5     C     0.49550   0.88800   0.52520   0.01267  Uiso   1.00
C6     C     0.51880   0.96400   0.50880   0.01267  Uiso   1.00
C7     C     0.62200   0.65290   0.50650   0.01267  Uiso   1.00
C8     C     0.45530   0.75820   0.52740   0.01267  Uiso   1.00
C9     C     0.30310   0.85560   0.51560   0.01267  Uiso   1.00
C10    C     0.40810   0.90160   0.53320   0.01267  Uiso   1.00
C11    C     0.89860   0.73880   0.81780   0.01267  Uiso   1.00
C12    C     0.79060   0.88100   0.83940   0.01267  Uiso   1.00
C13    C     0.82160   0.79550   0.85270   0.01267  Uiso   1.00
C14    C     0.97820   0.75850   0.74370   0.01267  Uiso   1.00
C15    C     0.95850   0.83750   0.72930   0.01267  Uiso   1.00
C16    C     0.68680   0.95300   0.89660   0.01267  Uiso   1.00
C17    C     0.86790   0.90370   0.77450   0.01267  Uiso   1.00
C18    C     0.04070   0.85630   0.64930   0.01267  Uiso   1.00
C19    C     0.80820   0.25960   0.47740   0.01267  Uiso   1.00
C20    C     0.89280   0.19790   0.47470   0.01267  Uiso   1.00
C21    C     0.75960   0.15690   0.47370   0.01267  Uiso   1.00
C22    C     0.42310   0.34640   0.14740   0.01267  Uiso   1.00
C23    C     0.90870   0.11200   0.47480   0.01267  Uiso   1.00
C24    C     0.99160   0.03600   0.49120   0.01267  Uiso   1.00
C25    C     0.78140   0.34710   0.49350   0.01267  Uiso   1.00
C26    C     0.74090   0.24180   0.47260   0.01267  Uiso   1.00
C27    C     0.67430   0.14440   0.48440   0.01267  Uiso   1.00
C28    C     0.84290   0.09840   0.46680   0.01267  Uiso   1.00
C29    C     0.45520   0.26120   0.18220   0.01267  Uiso   1.00
C30    C     0.51100   0.11900   0.16060   0.01267  Uiso   1.00
C31    C     0.46980   0.20450   0.14730   0.01267  Uiso   1.00
C32    C     0.48040   0.24150   0.25630   0.01267  Uiso   1.00
C33    C     0.52530   0.16250   0.27070   0.01267  Uiso   1.00
C34    C     0.53640   0.04700   0.10340   0.01267  Uiso   1.00
C35    C     0.54610   0.09630   0.22550   0.01267  Uiso   1.00
C36    C     0.54630   0.14370   0.35070   0.01267  Uiso   1.00
C37    C     0.93220   0.52260   0.25960   0.01267  Uiso   1.00
C38    C     0.90930   0.52530   0.19790   0.01267  Uiso   1.00
C39    C     0.08350   0.52630   0.15690   0.01267  Uiso   1.00
C40    C     0.23050   0.85260   0.34640   0.01267  Uiso   1.00
C41    C     0.97930   0.52520   0.11200   0.01267  Uiso   1.00
C42    C     0.97240   0.50880   0.03600   0.01267  Uiso   1.00
C43    C     0.87150   0.50650   0.34710   0.01267  Uiso   1.00
C44    C     0.01730   0.52740   0.24180   0.01267  Uiso   1.00
C45    C     0.18130   0.51560   0.14440   0.01267  Uiso   1.00
C46    C     0.05870   0.53320   0.09840   0.01267  Uiso   1.00
C47    C     0.28360   0.81780   0.26120   0.01267  Uiso   1.00
C48    C     0.37000   0.83940   0.11900   0.01267  Uiso   1.00
C49    C     0.32570   0.85270   0.20450   0.01267  Uiso   1.00
C50    C     0.27810   0.74370   0.24150   0.01267  Uiso   1.00
C51    C     0.31220   0.72930   0.16250   0.01267  Uiso   1.00
C52    C     0.41660   0.89660   0.04700   0.01267  Uiso   1.00
C53    C     0.35760   0.77450   0.09630   0.01267  Uiso   1.00
C54    C     0.31000   0.64930   0.14370   0.01267  Uiso   1.00
C55    C     0.71440   0.47740   0.74040   0.01267  Uiso   1.00
C56    C     0.63250   0.47470   0.80210   0.01267  Uiso   1.00
C57    C     0.76670   0.47370   0.84310   0.01267  Uiso   1.00
C58    C     0.42950   0.14740   0.65360   0.01267  Uiso   1.00
C59    C     0.61650   0.47480   0.88800   0.01267  Uiso   1.00
C60    C     0.51720   0.49120   0.96400   0.01267  Uiso   1.00
C61    C     0.72510   0.49350   0.65290   0.01267  Uiso   1.00
C62    C     0.78650   0.47260   0.75820   0.01267  Uiso   1.00
C63    C     0.84130   0.48440   0.85560   0.01267  Uiso   1.00
C64    C     0.69030   0.46680   0.90160   0.01267  Uiso   1.00
C65    C     0.36260   0.18220   0.73880   0.01267  Uiso   1.00
C66    C     0.32840   0.16060   0.88100   0.01267  Uiso   1.00
C67    C     0.38290   0.14730   0.79550   0.01267  Uiso   1.00
C68    C     0.26330   0.25630   0.75850   0.01267  Uiso   1.00
C69    C     0.20400   0.27070   0.83750   0.01267  Uiso   1.00
C70    C     0.36020   0.10340   0.95300   0.01267  Uiso   1.00
C71    C     0.22840   0.22550   0.90370   0.01267  Uiso   1.00
C72    C     0.10300   0.35070   0.85630   0.01267  Uiso   1.00
O1     O     0.23530   0.92790   0.53030   0.01267  Uiso   1.00
O2     O     0.28850   0.79820   0.50820   0.01267  Uiso   1.00
O3     O     0.02650   0.93190   0.64070   0.01267  Uiso   1.00
O4     O     0.08200   0.81160   0.59860   0.01267  Uiso   1.00
O5     O     0.86160   0.63130   0.90690   0.01267  Uiso   1.00
O6     O     0.01440   0.58650   0.80850   0.01267  Uiso   1.00
O7     O     0.59890   0.95550   0.50370   0.01267  Uiso   1.00
O8     O     0.69480   0.64350   0.51230   0.01267  Uiso   1.00
O9     O     0.45360   0.03680   0.51120   0.01267  Uiso   1.00
O10    O     0.61160   0.59900   0.50700   0.01267  Uiso   1.00
O11    O     0.63320   0.91690   0.93790   0.01267  Uiso   1.00
O12    O     0.68040   0.02100   0.88540   0.01267  Uiso   1.00
O13    O     0.69350   0.07210   0.46970   0.01267  Uiso   1.00
O14    O     0.59490   0.20180   0.49180   0.01267  Uiso   1.00
O15    O     0.59910   0.06810   0.35930   0.01267  Uiso   1.00
O16    O     0.49220   0.18840   0.40140   0.01267  Uiso   1.00
O17    O     0.39980   0.36870   0.09310   0.01267  Uiso   1.00
O18    O     0.40940   0.41350   0.19150   0.01267  Uiso   1.00
O19    O     0.05810   0.04450   0.49630   0.01267  Uiso   1.00
O20    O     0.85060   0.35650   0.48770   0.01267  Uiso   1.00
O21    O     0.00160   0.96320   0.48880   0.01267  Uiso   1.00
O22    O     0.71760   0.40100   0.49300   0.01267  Uiso   1.00
O23    O     0.48800   0.08310   0.06210   0.01267  Uiso   1.00
O24    O     0.58680   0.97900   0.11460   0.01267  Uiso   1.00
O25    O     0.23440   0.53030   0.07210   0.01267  Uiso   1.00
O26    O     0.20330   0.50820   0.20180   0.01267  Uiso   1.00
O27    O     0.33280   0.64070   0.06810   0.01267  Uiso   1.00
O28    O     0.31940   0.59860   0.18840   0.01267  Uiso   1.00
O29    O     0.23150   0.90690   0.36870   0.01267  Uiso   1.00
O30    O     0.17710   0.80850   0.41350   0.01267  Uiso   1.00
O31    O     0.89740   0.50370   0.04450   0.01267  Uiso   1.00
O32    O     0.79290   0.51230   0.35650   0.01267  Uiso   1.00
O33    O     0.03520   0.51120   0.96320   0.01267  Uiso   1.00
O34    O     0.88140   0.50700   0.40100   0.01267  Uiso   1.00
O35    O     0.42890   0.93790   0.08310   0.01267  Uiso   1.00
O36    O     0.43420   0.88540   0.97900   0.01267  Uiso   1.00
O37    O     0.83680   0.46970   0.92790   0.01267  Uiso   1.00
O38    O     0.91330   0.49180   0.79820   0.01267  Uiso   1.00
O39    O     0.04160   0.35930   0.93190   0.01267  Uiso   1.00
O40    O     0.10640   0.40140   0.81160   0.01267  Uiso   1.00
O41    O     0.50710   0.09310   0.63130   0.01267  Uiso   1.00
O42    O     0.39910   0.19150   0.58650   0.01267  Uiso   1.00
O43    O     0.44560   0.49630   0.95550   0.01267  Uiso   1.00
O44    O     0.66170   0.48770   0.64350   0.01267  Uiso   1.00
O45    O     0.50960   0.48880   0.03680   0.01267  Uiso   1.00
O46    O     0.78940   0.49300   0.59900   0.01267  Uiso   1.00
O47    O     0.44990   0.06210   0.91690   0.01267  Uiso   1.00
O48    O     0.29860   0.11460   0.02100   0.01267  Uiso   1.00
