data_WECJAR_clean
_audit_creation_date              2014-07-02
_audit_creation_method            'Materials Studio'
_symmetry_space_group_name_H-M    'P1'
_symmetry_Int_Tables_number       1
_symmetry_cell_setting            triclinic
loop_
_symmetry_equiv_pos_as_xyz
  x,y,z
_cell_length_a                    9.9312
_cell_length_b                    13.9611
_cell_length_c                    13.9611
_cell_angle_alpha                 104.0740
_cell_angle_beta                  94.0146
_cell_angle_gamma                 94.0146
loop_
_atom_site_label
_atom_site_type_symbol
_atom_site_fract_x
_atom_site_fract_y
_atom_site_fract_z
_atom_site_U_iso_or_equiv
_atom_site_adp_type
_atom_site_occupancy
Zn1    Zn    0.60504   0.23651   0.69254   0.01267  Uiso   1.00
Zn2    Zn    0.89496   0.30746   0.76349   0.01267  Uiso   1.00
Zn3    Zn    0.39496   0.76349   0.30746   0.01267  Uiso   1.00
Zn4    Zn    0.10504   0.69254   0.23651   0.01267  Uiso   1.00
H1     H     0.98640   0.40420   0.47220   0.01267  Uiso   1.00
H2     H     0.92720   0.41570   0.30270   0.01267  Uiso   1.00
H3     H     0.50340   0.26470   0.19090   0.01267  Uiso   1.00
H4     H     0.46450   0.25390   0.01490   0.01267  Uiso   1.00
H5     H     0.45580   0.03560   0.62440   0.01267  Uiso   1.00
H6     H     0.34930   0.29260   0.60960   0.01267  Uiso   1.00
H7     H     0.24300   0.96120   0.55820   0.01267  Uiso   1.00
H8     H     0.13560   0.22780   0.54400   0.01267  Uiso   1.00
H9     H     0.96200   0.09070   0.49550   0.01267  Uiso   1.00
H10    H     0.51360   0.52780   0.59580   0.01267  Uiso   1.00
H11    H     0.57280   0.69730   0.58430   0.01267  Uiso   1.00
H12    H     0.99660   0.80910   0.73530   0.01267  Uiso   1.00
H13    H     0.03550   0.98510   0.74610   0.01267  Uiso   1.00
H14    H     0.04420   0.37560   0.96440   0.01267  Uiso   1.00
H15    H     0.15070   0.39040   0.70740   0.01267  Uiso   1.00
H16    H     0.25700   0.44180   0.03880   0.01267  Uiso   1.00
H17    H     0.36440   0.45600   0.77220   0.01267  Uiso   1.00
H18    H     0.53800   0.50450   0.90930   0.01267  Uiso   1.00
H19    H     0.01360   0.59580   0.52780   0.01267  Uiso   1.00
H20    H     0.07280   0.58430   0.69730   0.01267  Uiso   1.00
H21    H     0.49660   0.73530   0.80910   0.01267  Uiso   1.00
H22    H     0.53550   0.74610   0.98510   0.01267  Uiso   1.00
H23    H     0.54420   0.96440   0.37560   0.01267  Uiso   1.00
H24    H     0.65070   0.70740   0.39040   0.01267  Uiso   1.00
H25    H     0.75700   0.03880   0.44180   0.01267  Uiso   1.00
H26    H     0.86440   0.77220   0.45600   0.01267  Uiso   1.00
H27    H     0.03800   0.90930   0.50450   0.01267  Uiso   1.00
H28    H     0.48640   0.47220   0.40420   0.01267  Uiso   1.00
H29    H     0.42720   0.30270   0.41570   0.01267  Uiso   1.00
H30    H     0.00340   0.19090   0.26470   0.01267  Uiso   1.00
H31    H     0.96450   0.01490   0.25390   0.01267  Uiso   1.00
H32    H     0.95580   0.62440   0.03560   0.01267  Uiso   1.00
H33    H     0.84930   0.60960   0.29260   0.01267  Uiso   1.00
H34    H     0.74300   0.55820   0.96120   0.01267  Uiso   1.00
H35    H     0.63560   0.54400   0.22780   0.01267  Uiso   1.00
H36    H     0.46200   0.49550   0.09070   0.01267  Uiso   1.00
C1     C     0.82060   0.27949   0.55725   0.01267  Uiso   1.00
C2     C     0.82810   0.29993   0.45961   0.01267  Uiso   1.00
C3     C     0.91360   0.36688   0.43130   0.01267  Uiso   1.00
C4     C     0.87950   0.37337   0.33307   0.01267  Uiso   1.00
C5     C     0.76830   0.31054   0.28732   0.01267  Uiso   1.00
C6     C     0.70520   0.29578   0.18682   0.01267  Uiso   1.00
C7     C     0.57230   0.27411   0.15147   0.01267  Uiso   1.00
C8     C     0.54970   0.26745   0.04983   0.01267  Uiso   1.00
C9     C     0.66700   0.28303   0.00761   0.01267  Uiso   1.00
C10    C     0.69000   0.28182   0.90358   0.01267  Uiso   1.00
C11    C     0.38970   0.07524   0.60976   0.01267  Uiso   1.00
C12    C     0.32700   0.22508   0.60102   0.01267  Uiso   1.00
C13    C     0.26090   0.02948   0.56992   0.01267  Uiso   1.00
C14    C     0.19770   0.18691   0.56157   0.01267  Uiso   1.00
C15    C     0.16180   0.08631   0.54849   0.01267  Uiso   1.00
C16    C     0.02220   0.04650   0.50882   0.01267  Uiso   1.00
C17    C     0.67940   0.44275   0.72051   0.01267  Uiso   1.00
C18    C     0.67190   0.54039   0.70007   0.01267  Uiso   1.00
C19    C     0.58640   0.56870   0.63312   0.01267  Uiso   1.00
C20    C     0.62050   0.66693   0.62663   0.01267  Uiso   1.00
C21    C     0.73170   0.71268   0.68946   0.01267  Uiso   1.00
C22    C     0.79480   0.81318   0.70422   0.01267  Uiso   1.00
C23    C     0.92770   0.84853   0.72589   0.01267  Uiso   1.00
C24    C     0.95030   0.95017   0.73255   0.01267  Uiso   1.00
C25    C     0.83300   0.99239   0.71697   0.01267  Uiso   1.00
C26    C     0.81000   0.09642   0.71818   0.01267  Uiso   1.00
C27    C     0.11030   0.39024   0.92476   0.01267  Uiso   1.00
C28    C     0.17300   0.39898   0.77492   0.01267  Uiso   1.00
C29    C     0.23910   0.43008   0.97052   0.01267  Uiso   1.00
C30    C     0.30230   0.43843   0.81309   0.01267  Uiso   1.00
C31    C     0.33820   0.45151   0.91369   0.01267  Uiso   1.00
C32    C     0.47780   0.49118   0.95350   0.01267  Uiso   1.00
C33    C     0.17940   0.72051   0.44275   0.01267  Uiso   1.00
C34    C     0.17190   0.70007   0.54039   0.01267  Uiso   1.00
C35    C     0.08640   0.63312   0.56870   0.01267  Uiso   1.00
C36    C     0.12050   0.62663   0.66693   0.01267  Uiso   1.00
C37    C     0.23170   0.68946   0.71268   0.01267  Uiso   1.00
C38    C     0.29480   0.70422   0.81318   0.01267  Uiso   1.00
C39    C     0.42770   0.72589   0.84853   0.01267  Uiso   1.00
C40    C     0.45030   0.73255   0.95017   0.01267  Uiso   1.00
C41    C     0.33300   0.71697   0.99239   0.01267  Uiso   1.00
C42    C     0.31000   0.71818   0.09642   0.01267  Uiso   1.00
C43    C     0.61030   0.92476   0.39024   0.01267  Uiso   1.00
C44    C     0.67300   0.77492   0.39898   0.01267  Uiso   1.00
C45    C     0.73910   0.97052   0.43008   0.01267  Uiso   1.00
C46    C     0.80230   0.81309   0.43843   0.01267  Uiso   1.00
C47    C     0.83820   0.91369   0.45151   0.01267  Uiso   1.00
C48    C     0.97780   0.95350   0.49118   0.01267  Uiso   1.00
C49    C     0.32060   0.55725   0.27949   0.01267  Uiso   1.00
C50    C     0.32810   0.45961   0.29993   0.01267  Uiso   1.00
C51    C     0.41360   0.43130   0.36688   0.01267  Uiso   1.00
C52    C     0.37950   0.33307   0.37337   0.01267  Uiso   1.00
C53    C     0.26830   0.28732   0.31054   0.01267  Uiso   1.00
C54    C     0.20520   0.18682   0.29578   0.01267  Uiso   1.00
C55    C     0.07230   0.15147   0.27411   0.01267  Uiso   1.00
C56    C     0.04970   0.04983   0.26745   0.01267  Uiso   1.00
C57    C     0.16700   0.00761   0.28303   0.01267  Uiso   1.00
C58    C     0.19000   0.90358   0.28182   0.01267  Uiso   1.00
C59    C     0.88970   0.60976   0.07524   0.01267  Uiso   1.00
C60    C     0.82700   0.60102   0.22508   0.01267  Uiso   1.00
C61    C     0.76090   0.56992   0.02948   0.01267  Uiso   1.00
C62    C     0.69770   0.56157   0.18691   0.01267  Uiso   1.00
C63    C     0.66180   0.54849   0.08631   0.01267  Uiso   1.00
C64    C     0.52220   0.50882   0.04650   0.01267  Uiso   1.00
S1     S     0.70493   0.24320   0.36520   0.01267  Uiso   1.00
S2     S     0.80592   0.30664   0.09380   0.01267  Uiso   1.00
S3     S     0.79507   0.63480   0.75680   0.01267  Uiso   1.00
S4     S     0.69408   0.90620   0.69336   0.01267  Uiso   1.00
S5     S     0.29507   0.75680   0.63480   0.01267  Uiso   1.00
S6     S     0.19408   0.69336   0.90620   0.01267  Uiso   1.00
S7     S     0.20493   0.36520   0.24320   0.01267  Uiso   1.00
S8     S     0.30592   0.09380   0.30664   0.01267  Uiso   1.00
N1     N     0.42180   0.17180   0.62756   0.01267  Uiso   1.00
N2     N     0.07820   0.37244   0.82820   0.01267  Uiso   1.00
N3     N     0.57820   0.82820   0.37244   0.01267  Uiso   1.00
N4     N     0.92180   0.62756   0.17180   0.01267  Uiso   1.00
O1     O     0.58778   0.27224   0.84200   0.01267  Uiso   1.00
O2     O     0.81241   0.29040   0.88656   0.01267  Uiso   1.00
O3     O     0.71782   0.22704   0.56978   0.01267  Uiso   1.00
O4     O     0.91753   0.31717   0.62249   0.01267  Uiso   1.00
O5     O     0.91222   0.15800   0.72776   0.01267  Uiso   1.00
O6     O     0.68759   0.11344   0.70960   0.01267  Uiso   1.00
O7     O     0.78218   0.43022   0.77296   0.01267  Uiso   1.00
O8     O     0.58247   0.37751   0.68283   0.01267  Uiso   1.00
O9     O     0.41222   0.72776   0.15800   0.01267  Uiso   1.00
O10    O     0.18759   0.70960   0.11344   0.01267  Uiso   1.00
O11    O     0.28218   0.77296   0.43022   0.01267  Uiso   1.00
O12    O     0.08247   0.68283   0.37751   0.01267  Uiso   1.00
O13    O     0.08778   0.84200   0.27224   0.01267  Uiso   1.00
O14    O     0.31241   0.88656   0.29040   0.01267  Uiso   1.00
O15    O     0.21782   0.56978   0.22704   0.01267  Uiso   1.00
O16    O     0.41753   0.62249   0.31717   0.01267  Uiso   1.00
