data_WEFXIQ_clean
_audit_creation_date              2014-07-02
_audit_creation_method            'Materials Studio'
_symmetry_space_group_name_H-M    'P1'
_symmetry_Int_Tables_number       1
_symmetry_cell_setting            triclinic
loop_
_symmetry_equiv_pos_as_xyz
  x,y,z
_cell_length_a                    7.4594
_cell_length_b                    15.5887
_cell_length_c                    17.1515
_cell_angle_alpha                 90.0000
_cell_angle_beta                  91.6479
_cell_angle_gamma                 90.0000
loop_
_atom_site_label
_atom_site_type_symbol
_atom_site_fract_x
_atom_site_fract_y
_atom_site_fract_z
_atom_site_U_iso_or_equiv
_atom_site_adp_type
_atom_site_occupancy
Ni1    Ni    0.00000   0.00000   0.00000   0.01267  Uiso   1.00
Ni2    Ni    0.00000   0.50000   0.50000   0.01267  Uiso   1.00
H1     H     0.10996   0.84903   0.28789   0.01267  Uiso   1.00
H2     H     0.47188   0.65507   0.28924   0.01267  Uiso   1.00
H3     H     0.62880   0.72405   0.19105   0.01267  Uiso   1.00
H4     H     0.37015   0.88771   0.03152   0.01267  Uiso   1.00
H5     H     0.61352   0.95618   0.95849   0.01267  Uiso   1.00
H6     H     0.81734   0.88263   0.16664   0.01267  Uiso   1.00
H7     H     0.09567   0.58867   0.30816   0.01267  Uiso   1.00
H8     H     0.01755   0.67981   0.52301   0.01267  Uiso   1.00
H9     H     0.19435   0.78716   0.45155   0.01267  Uiso   1.00
H10    H     0.89004   0.34903   0.21211   0.01267  Uiso   1.00
H11    H     0.52812   0.15507   0.21076   0.01267  Uiso   1.00
H12    H     0.37120   0.22405   0.30895   0.01267  Uiso   1.00
H13    H     0.62985   0.38771   0.46848   0.01267  Uiso   1.00
H14    H     0.38648   0.45618   0.54151   0.01267  Uiso   1.00
H15    H     0.18266   0.38263   0.33336   0.01267  Uiso   1.00
H16    H     0.90433   0.08867   0.19184   0.01267  Uiso   1.00
H17    H     0.98245   0.17981   0.97699   0.01267  Uiso   1.00
H18    H     0.80565   0.28716   0.04845   0.01267  Uiso   1.00
H19    H     0.89004   0.15097   0.71211   0.01267  Uiso   1.00
H20    H     0.52812   0.34493   0.71076   0.01267  Uiso   1.00
H21    H     0.37120   0.27595   0.80895   0.01267  Uiso   1.00
H22    H     0.62985   0.11229   0.96848   0.01267  Uiso   1.00
H23    H     0.38648   0.04382   0.04151   0.01267  Uiso   1.00
H24    H     0.18266   0.11737   0.83336   0.01267  Uiso   1.00
H25    H     0.90433   0.41133   0.69184   0.01267  Uiso   1.00
H26    H     0.98245   0.32019   0.47699   0.01267  Uiso   1.00
H27    H     0.80565   0.21284   0.54845   0.01267  Uiso   1.00
H28    H     0.10996   0.65097   0.78789   0.01267  Uiso   1.00
H29    H     0.47188   0.84493   0.78924   0.01267  Uiso   1.00
H30    H     0.62880   0.77595   0.69105   0.01267  Uiso   1.00
H31    H     0.37015   0.61229   0.53152   0.01267  Uiso   1.00
H32    H     0.61352   0.54382   0.45849   0.01267  Uiso   1.00
H33    H     0.81734   0.61737   0.66664   0.01267  Uiso   1.00
H34    H     0.09567   0.91133   0.80816   0.01267  Uiso   1.00
H35    H     0.01755   0.82019   0.02301   0.01267  Uiso   1.00
H36    H     0.19435   0.71284   0.95155   0.01267  Uiso   1.00
C1     C     0.46259   0.82751   0.18115   0.01267  Uiso   1.00
C2     C     0.30849   0.86463   0.20991   0.01267  Uiso   1.00
C3     C     0.21528   0.82366   0.26823   0.01267  Uiso   1.00
C4     C     0.27617   0.74557   0.29779   0.01267  Uiso   1.00
C5     C     0.43027   0.70845   0.26903   0.01267  Uiso   1.00
C6     C     0.52348   0.74942   0.21071   0.01267  Uiso   1.00
C7     C     0.55983   0.87026   0.12031   0.01267  Uiso   1.00
C8     C     0.49066   0.89522   0.04967   0.01267  Uiso   1.00
C9     C     0.73621   0.89243   0.12386   0.01267  Uiso   1.00
C10    C     0.17893   0.70282   0.35863   0.01267  Uiso   1.00
C11    C     0.09824   0.62476   0.35281   0.01267  Uiso   1.00
C12    C     0.15242   0.73375   0.43154   0.01267  Uiso   1.00
C13    C     0.53741   0.32751   0.31885   0.01267  Uiso   1.00
C14    C     0.69151   0.36463   0.29009   0.01267  Uiso   1.00
C15    C     0.78472   0.32366   0.23177   0.01267  Uiso   1.00
C16    C     0.72383   0.24557   0.20221   0.01267  Uiso   1.00
C17    C     0.56973   0.20845   0.23097   0.01267  Uiso   1.00
C18    C     0.47652   0.24942   0.28929   0.01267  Uiso   1.00
C19    C     0.44017   0.37026   0.37969   0.01267  Uiso   1.00
C20    C     0.50934   0.39522   0.45033   0.01267  Uiso   1.00
C21    C     0.26379   0.39243   0.37614   0.01267  Uiso   1.00
C22    C     0.82107   0.20282   0.14137   0.01267  Uiso   1.00
C23    C     0.90176   0.12476   0.14719   0.01267  Uiso   1.00
C24    C     0.84758   0.23375   0.06846   0.01267  Uiso   1.00
C25    C     0.53741   0.17249   0.81885   0.01267  Uiso   1.00
C26    C     0.69151   0.13537   0.79009   0.01267  Uiso   1.00
C27    C     0.78472   0.17634   0.73177   0.01267  Uiso   1.00
C28    C     0.72383   0.25443   0.70221   0.01267  Uiso   1.00
C29    C     0.56973   0.29155   0.73097   0.01267  Uiso   1.00
C30    C     0.47652   0.25058   0.78929   0.01267  Uiso   1.00
C31    C     0.44017   0.12974   0.87969   0.01267  Uiso   1.00
C32    C     0.50934   0.10478   0.95033   0.01267  Uiso   1.00
C33    C     0.26379   0.10757   0.87614   0.01267  Uiso   1.00
C34    C     0.82107   0.29718   0.64137   0.01267  Uiso   1.00
C35    C     0.90176   0.37524   0.64719   0.01267  Uiso   1.00
C36    C     0.84758   0.26625   0.56846   0.01267  Uiso   1.00
C37    C     0.46259   0.67249   0.68115   0.01267  Uiso   1.00
C38    C     0.30849   0.63537   0.70991   0.01267  Uiso   1.00
C39    C     0.21528   0.67634   0.76823   0.01267  Uiso   1.00
C40    C     0.27617   0.75443   0.79779   0.01267  Uiso   1.00
C41    C     0.43027   0.79155   0.76903   0.01267  Uiso   1.00
C42    C     0.52348   0.75058   0.71071   0.01267  Uiso   1.00
C43    C     0.55983   0.62974   0.62031   0.01267  Uiso   1.00
C44    C     0.49066   0.60478   0.54967   0.01267  Uiso   1.00
C45    C     0.73621   0.60757   0.62386   0.01267  Uiso   1.00
C46    C     0.17893   0.79718   0.85863   0.01267  Uiso   1.00
C47    C     0.09824   0.87524   0.85281   0.01267  Uiso   1.00
C48    C     0.15242   0.76625   0.93154   0.01267  Uiso   1.00
S1     S     0.23096   0.96407   0.17226   0.01267  Uiso   1.00
S2     S     0.76904   0.46407   0.32774   0.01267  Uiso   1.00
S3     S     0.76904   0.03593   0.82774   0.01267  Uiso   1.00
S4     S     0.23096   0.53593   0.67226   0.01267  Uiso   1.00
N1     N     0.62429   0.93281   0.00956   0.01267  Uiso   1.00
N2     N     0.77605   0.93109   0.05542   0.01267  Uiso   1.00
N3     N     0.02185   0.60745   0.42212   0.01267  Uiso   1.00
N4     N     0.05534   0.67481   0.47078   0.01267  Uiso   1.00
N5     N     0.37571   0.43281   0.49044   0.01267  Uiso   1.00
N6     N     0.22395   0.43109   0.44458   0.01267  Uiso   1.00
N7     N     0.97815   0.10745   0.07788   0.01267  Uiso   1.00
N8     N     0.94466   0.17481   0.02922   0.01267  Uiso   1.00
N9     N     0.37571   0.06719   0.99044   0.01267  Uiso   1.00
N10    N     0.22395   0.06891   0.94458   0.01267  Uiso   1.00
N11    N     0.97815   0.39255   0.57788   0.01267  Uiso   1.00
N12    N     0.94466   0.32519   0.52922   0.01267  Uiso   1.00
N13    N     0.62429   0.56719   0.50956   0.01267  Uiso   1.00
N14    N     0.77605   0.56891   0.55542   0.01267  Uiso   1.00
N15    N     0.02185   0.89255   0.92212   0.01267  Uiso   1.00
N16    N     0.05534   0.82519   0.97078   0.01267  Uiso   1.00
O1     O     0.38911   0.02425   0.16259   0.01267  Uiso   1.00
O2     O     0.13686   0.94974   0.09356   0.01267  Uiso   1.00
O3     O     0.10009   0.00355   0.22833   0.01267  Uiso   1.00
O4     O     0.61089   0.52425   0.33741   0.01267  Uiso   1.00
O5     O     0.86314   0.44974   0.40644   0.01267  Uiso   1.00
O6     O     0.89991   0.50355   0.27167   0.01267  Uiso   1.00
O7     O     0.61089   0.97575   0.83741   0.01267  Uiso   1.00
O8     O     0.86314   0.05026   0.90644   0.01267  Uiso   1.00
O9     O     0.89991   0.99645   0.77167   0.01267  Uiso   1.00
O10    O     0.38911   0.47575   0.66259   0.01267  Uiso   1.00
O11    O     0.13686   0.55026   0.59356   0.01267  Uiso   1.00
O12    O     0.10009   0.49645   0.72833   0.01267  Uiso   1.00
