data_WEHNAA_clean
_audit_creation_date              2014-07-02
_audit_creation_method            'Materials Studio'
_symmetry_space_group_name_H-M    'P1'
_symmetry_Int_Tables_number       1
_symmetry_cell_setting            triclinic
loop_
_symmetry_equiv_pos_as_xyz
  x,y,z
_cell_length_a                    8.6174
_cell_length_b                    9.7030
_cell_length_c                    15.3915
_cell_angle_alpha                 95.2220
_cell_angle_beta                  106.2570
_cell_angle_gamma                 90.0000
loop_
_atom_site_label
_atom_site_type_symbol
_atom_site_fract_x
_atom_site_fract_y
_atom_site_fract_z
_atom_site_U_iso_or_equiv
_atom_site_adp_type
_atom_site_occupancy
Mg1    Mg    0.50000   0.00000   0.50000   0.01267  Uiso   1.00
Mg2    Mg    0.00000   0.50000   0.50000   0.01267  Uiso   1.00
P1     P     0.42458   0.93890   0.70096   0.01267  Uiso   1.00
P2     P     0.77274   0.75990   0.57348   0.01267  Uiso   1.00
P3     P     0.72362   0.56110   0.29904   0.01267  Uiso   1.00
P4     P     0.19926   0.74010   0.42652   0.01267  Uiso   1.00
P5     P     0.57542   0.06110   0.29904   0.01267  Uiso   1.00
P6     P     0.22726   0.24010   0.42652   0.01267  Uiso   1.00
P7     P     0.27638   0.43890   0.70096   0.01267  Uiso   1.00
P8     P     0.80074   0.25990   0.57348   0.01267  Uiso   1.00
C1     C     0.20970   0.95970   0.65220   0.01267  Uiso   1.00
C2     C     0.93120   0.89230   0.60640   0.01267  Uiso   1.00
C3     C     0.11366   0.82330   0.74852   0.01267  Uiso   1.00
C4     C     0.03830   0.93480   0.79600   0.01267  Uiso   1.00
C5     C     0.04719   0.90970   0.89038   0.01267  Uiso   1.00
C6     C     0.98359   0.00960   0.95018   0.01267  Uiso   1.00
C7     C     0.55750   0.54030   0.34780   0.01267  Uiso   1.00
C8     C     0.32480   0.60770   0.39360   0.01267  Uiso   1.00
C9     C     0.36514   0.67670   0.25148   0.01267  Uiso   1.00
C10    C     0.24230   0.56520   0.20400   0.01267  Uiso   1.00
C11    C     0.15681   0.59030   0.10962   0.01267  Uiso   1.00
C12    C     0.03341   0.49040   0.04982   0.01267  Uiso   1.00
C13    C     0.79030   0.04030   0.34780   0.01267  Uiso   1.00
C14    C     0.06880   0.10770   0.39360   0.01267  Uiso   1.00
C15    C     0.88634   0.17670   0.25148   0.01267  Uiso   1.00
C16    C     0.96170   0.06520   0.20400   0.01267  Uiso   1.00
C17    C     0.95281   0.09030   0.10962   0.01267  Uiso   1.00
C18    C     0.01641   0.99040   0.04982   0.01267  Uiso   1.00
C19    C     0.44250   0.45970   0.65220   0.01267  Uiso   1.00
C20    C     0.67520   0.39230   0.60640   0.01267  Uiso   1.00
C21    C     0.63486   0.32330   0.74852   0.01267  Uiso   1.00
C22    C     0.75770   0.43480   0.79600   0.01267  Uiso   1.00
C23    C     0.84319   0.40970   0.89038   0.01267  Uiso   1.00
C24    C     0.96659   0.50960   0.95018   0.01267  Uiso   1.00
N1     N     0.09625   0.84370   0.65150   0.01267  Uiso   1.00
N2     N     0.44475   0.65630   0.34850   0.01267  Uiso   1.00
N3     N     0.90375   0.15630   0.34850   0.01267  Uiso   1.00
N4     N     0.55525   0.34370   0.65150   0.01267  Uiso   1.00
O1     O     0.49872   0.01690   0.63924   0.01267  Uiso   1.00
O2     O     0.46766   0.00490   0.80032   0.01267  Uiso   1.00
O3     O     0.46700   0.78910   0.70400   0.01267  Uiso   1.00
O4     O     0.83960   0.63240   0.53680   0.01267  Uiso   1.00
O5     O     0.62996   0.81360   0.50232   0.01267  Uiso   1.00
O6     O     0.73573   0.71950   0.65846   0.01267  Uiso   1.00
O7     O     0.85948   0.48310   0.36076   0.01267  Uiso   1.00
O8     O     0.66734   0.49510   0.19968   0.01267  Uiso   1.00
O9     O     0.76300   0.71090   0.29600   0.01267  Uiso   1.00
O10    O     0.30280   0.86760   0.46320   0.01267  Uiso   1.00
O11    O     0.12764   0.68640   0.49768   0.01267  Uiso   1.00
O12    O     0.07727   0.78050   0.34154   0.01267  Uiso   1.00
O13    O     0.50128   0.98310   0.36076   0.01267  Uiso   1.00
O14    O     0.53234   0.99510   0.19968   0.01267  Uiso   1.00
O15    O     0.53300   0.21090   0.29600   0.01267  Uiso   1.00
O16    O     0.16040   0.36760   0.46320   0.01267  Uiso   1.00
O17    O     0.37004   0.18640   0.49768   0.01267  Uiso   1.00
O18    O     0.26427   0.28050   0.34154   0.01267  Uiso   1.00
O19    O     0.14052   0.51690   0.63924   0.01267  Uiso   1.00
O20    O     0.33266   0.50490   0.80032   0.01267  Uiso   1.00
O21    O     0.23700   0.28910   0.70400   0.01267  Uiso   1.00
O22    O     0.69720   0.13240   0.53680   0.01267  Uiso   1.00
O23    O     0.87236   0.31360   0.50232   0.01267  Uiso   1.00
O24    O     0.92273   0.21950   0.65846   0.01267  Uiso   1.00
