data_WEHPIJ_charged
_audit_creation_date              2014-07-02
_audit_creation_method            'Materials Studio'
_symmetry_space_group_name_H-M    'P1'
_symmetry_Int_Tables_number       1
_symmetry_cell_setting            triclinic
loop_
_symmetry_equiv_pos_as_xyz
  x,y,z
_cell_length_a                    12.5251
_cell_length_b                    12.5251
_cell_length_c                    19.5640
_cell_angle_alpha                 75.6402
_cell_angle_beta                  75.6402
_cell_angle_gamma                 68.7042
loop_
_atom_site_label
_atom_site_type_symbol
_atom_site_fract_x
_atom_site_fract_y
_atom_site_fract_z
_atom_site_U_iso_or_equiv
_atom_site_adp_type
_atom_site_occupancy
Co1    Co    0.00000   0.50000   0.50000   0.01267  Uiso   1.00
Co2    Co    0.50000  -0.00000   0.00000   0.01267  Uiso   1.00
H1     H     0.18790   0.18790   0.54650   0.01267  Uiso   1.00
H2     H     0.30060   0.09440   0.63320   0.01267  Uiso   1.00
H3     H     0.05040   0.26560   0.77350   0.01267  Uiso   1.00
H4     H     0.94460   0.36060   0.68380   0.01267  Uiso   1.00
H5     H     0.49920   0.89840   0.79840   0.01267  Uiso   1.00
H6     H     0.38610   0.99070   0.71210   0.01267  Uiso   1.00
H7     H     0.16520   0.19440   0.84820   0.01267  Uiso   1.00
H8     H     0.28050   0.09610   0.93340   0.01267  Uiso   1.00
H9     H     0.64120   0.71960   0.51040   0.01267  Uiso   1.00
H10    H     0.48700   0.68520   0.49100   0.01267  Uiso   1.00
H11    H     0.65050   0.34670   0.53000   0.01267  Uiso   1.00
H12    H     0.80460   0.38440   0.54840   0.01267  Uiso   1.00
H13    H     0.81210   0.81210   0.95350   0.01267  Uiso   1.00
H14    H     0.90560   0.69940   0.86680   0.01267  Uiso   1.00
H15    H     0.73440   0.94960   0.72650   0.01267  Uiso   1.00
H16    H     0.63940   0.05540   0.81620   0.01267  Uiso   1.00
H17    H     0.10160   0.50080   0.70160   0.01267  Uiso   1.00
H18    H     0.00930   0.61390   0.78790   0.01267  Uiso   1.00
H19    H     0.80560   0.83480   0.65180   0.01267  Uiso   1.00
H20    H     0.90390   0.71950   0.56660   0.01267  Uiso   1.00
H21    H     0.28040   0.35880   0.98960   0.01267  Uiso   1.00
H22    H     0.31480   0.51300   0.00900   0.01267  Uiso   1.00
H23    H     0.65330   0.34950   0.97000   0.01267  Uiso   1.00
H24    H     0.61560   0.19540   0.95160   0.01267  Uiso   1.00
H25    H     0.81210   0.81210   0.45350   0.01267  Uiso   1.00
H26    H     0.69940   0.90560   0.36680   0.01267  Uiso   1.00
H27    H     0.94960   0.73440   0.22650   0.01267  Uiso   1.00
H28    H     0.05540   0.63940   0.31620   0.01267  Uiso   1.00
H29    H     0.50080   0.10160   0.20160   0.01267  Uiso   1.00
H30    H     0.61390   0.00930   0.28790   0.01267  Uiso   1.00
H31    H     0.83480   0.80560   0.15180   0.01267  Uiso   1.00
H32    H     0.71950   0.90390   0.06660   0.01267  Uiso   1.00
H33    H     0.35880   0.28040   0.48960   0.01267  Uiso   1.00
H34    H     0.51300   0.31480   0.50900   0.01267  Uiso   1.00
H35    H     0.34950   0.65330   0.47000   0.01267  Uiso   1.00
H36    H     0.19540   0.61560   0.45160   0.01267  Uiso   1.00
H37    H     0.18790   0.18790   0.04650   0.01267  Uiso   1.00
H38    H     0.09440   0.30060   0.13320   0.01267  Uiso   1.00
H39    H     0.26560   0.05040   0.27350   0.01267  Uiso   1.00
H40    H     0.36060   0.94460   0.18380   0.01267  Uiso   1.00
H41    H     0.89840   0.49920   0.29840   0.01267  Uiso   1.00
H42    H     0.99070   0.38610   0.21210   0.01267  Uiso   1.00
H43    H     0.19440   0.16520   0.34820   0.01267  Uiso   1.00
H44    H     0.09610   0.28050   0.43340   0.01267  Uiso   1.00
H45    H     0.71960   0.64120   0.01040   0.01267  Uiso   1.00
H46    H     0.68520   0.48700   0.99100   0.01267  Uiso   1.00
H47    H     0.34670   0.65050   0.03000   0.01267  Uiso   1.00
H48    H     0.38440   0.80460   0.04840   0.01267  Uiso   1.00
C1     C     0.16090   0.20510   0.59260   0.01267  Uiso   1.00
C2     C     0.22790   0.14850   0.64470   0.01267  Uiso   1.00
C3     C     0.19020   0.17000   0.71291   0.01267  Uiso   1.00
C4     C     0.08090   0.24990   0.72720   0.01267  Uiso   1.00
C5     C     0.01760   0.30600   0.67370   0.01267  Uiso   1.00
C6     C     0.43160   0.95980   0.80800   0.01267  Uiso   1.00
C7     C     0.36430   0.01490   0.75630   0.01267  Uiso   1.00
C8     C     0.26350   0.10670   0.76989   0.01267  Uiso   1.00
C9     C     0.23380   0.13480   0.83700   0.01267  Uiso   1.00
C10    C     0.30290   0.07670   0.88790   0.01267  Uiso   1.00
C11    C     0.64360   0.64340   0.51400   0.01267  Uiso   1.00
C12    C     0.55170   0.62230   0.50230   0.01267  Uiso   1.00
C13    C     0.54980   0.51300   0.50630   0.01267  Uiso   1.00
C14    C     0.64760   0.42340   0.52510   0.01267  Uiso   1.00
C15    C     0.73950   0.44610   0.53640   0.01267  Uiso   1.00
C16    C     0.79490   0.83910   0.90740   0.01267  Uiso   1.00
C17    C     0.85150   0.77210   0.85530   0.01267  Uiso   1.00
C18    C     0.83000   0.80980   0.78709   0.01267  Uiso   1.00
C19    C     0.75010   0.91910   0.77280   0.01267  Uiso   1.00
C20    C     0.69400   0.98240   0.82630   0.01267  Uiso   1.00
C21    C     0.04020   0.56840   0.69200   0.01267  Uiso   1.00
C22    C     0.98510   0.63570   0.74370   0.01267  Uiso   1.00
C23    C     0.89330   0.73650   0.73011   0.01267  Uiso   1.00
C24    C     0.86520   0.76620   0.66300   0.01267  Uiso   1.00
C25    C     0.92330   0.69710   0.61210   0.01267  Uiso   1.00
C26    C     0.35660   0.35640   0.98600   0.01267  Uiso   1.00
C27    C     0.37770   0.44830   0.99770   0.01267  Uiso   1.00
C28    C     0.48700   0.45020   0.99370   0.01267  Uiso   1.00
C29    C     0.57660   0.35240   0.97490   0.01267  Uiso   1.00
C30    C     0.55390   0.26050   0.96360   0.01267  Uiso   1.00
C31    C     0.83910   0.79490   0.40740   0.01267  Uiso   1.00
C32    C     0.77210   0.85150   0.35530   0.01267  Uiso   1.00
C33    C     0.80980   0.83000   0.28709   0.01267  Uiso   1.00
C34    C     0.91910   0.75010   0.27280   0.01267  Uiso   1.00
C35    C     0.98240   0.69400   0.32630   0.01267  Uiso   1.00
C36    C     0.56840   0.04020   0.19200   0.01267  Uiso   1.00
C37    C     0.63570   0.98510   0.24370   0.01267  Uiso   1.00
C38    C     0.73650   0.89330   0.23011   0.01267  Uiso   1.00
C39    C     0.76620   0.86520   0.16300   0.01267  Uiso   1.00
C40    C     0.69710   0.92330   0.11210   0.01267  Uiso   1.00
C41    C     0.35640   0.35660   0.48600   0.01267  Uiso   1.00
C42    C     0.44830   0.37770   0.49770   0.01267  Uiso   1.00
C43    C     0.45020   0.48700   0.49370   0.01267  Uiso   1.00
C44    C     0.35240   0.57660   0.47490   0.01267  Uiso   1.00
C45    C     0.26050   0.55390   0.46360   0.01267  Uiso   1.00
C46    C     0.20510   0.16090   0.09260   0.01267  Uiso   1.00
C47    C     0.14850   0.22790   0.14470   0.01267  Uiso   1.00
C48    C     0.17000   0.19020   0.21291   0.01267  Uiso   1.00
C49    C     0.24990   0.08090   0.22720   0.01267  Uiso   1.00
C50    C     0.30600   0.01760   0.17370   0.01267  Uiso   1.00
C51    C     0.95980   0.43160   0.30800   0.01267  Uiso   1.00
C52    C     0.01490   0.36430   0.25630   0.01267  Uiso   1.00
C53    C     0.10670   0.26350   0.26989   0.01267  Uiso   1.00
C54    C     0.13480   0.23380   0.33700   0.01267  Uiso   1.00
C55    C     0.07670   0.30290   0.38790   0.01267  Uiso   1.00
C56    C     0.64340   0.64360   0.01400   0.01267  Uiso   1.00
C57    C     0.62230   0.55170   0.00230   0.01267  Uiso   1.00
C58    C     0.51300   0.54980   0.00630   0.01267  Uiso   1.00
C59    C     0.42340   0.64760   0.02510   0.01267  Uiso   1.00
C60    C     0.44610   0.73950   0.03640   0.01267  Uiso   1.00
N1     N     0.05829   0.28397   0.60743   0.01267  Uiso   1.00
N2     N     0.40241   0.99201   0.87192   0.01267  Uiso   1.00
N3     N     0.73846   0.55438   0.53080   0.01267  Uiso   1.00
N4     N     0.71603   0.94171   0.89257   0.01267  Uiso   1.00
N5     N     0.00799   0.59759   0.62808   0.01267  Uiso   1.00
N6     N     0.44562   0.26154   0.96920   0.01267  Uiso   1.00
N7     N     0.94171   0.71603   0.39257   0.01267  Uiso   1.00
N8     N     0.59759   0.00799   0.12808   0.01267  Uiso   1.00
N9     N     0.26154   0.44562   0.46920   0.01267  Uiso   1.00
N10    N     0.28397   0.05829   0.10743   0.01267  Uiso   1.00
N11    N     0.99201   0.40241   0.37192   0.01267  Uiso   1.00
N12    N     0.55438   0.73846   0.03080   0.01267  Uiso   1.00
O1     O     0.99500   0.33792   0.55525   0.01267  Uiso   1.00
O2     O     0.47379   0.93477   0.91933   0.01267  Uiso   1.00
O3     O     0.82707   0.57815   0.54178   0.01267  Uiso   1.00
O4     O     0.66208   0.00500   0.94475   0.01267  Uiso   1.00
O5     O     0.06523   0.52621   0.58067   0.01267  Uiso   1.00
O6     O     0.42185   0.17293   0.95822   0.01267  Uiso   1.00
O7     O     0.00500   0.66208   0.44475   0.01267  Uiso   1.00
O8     O     0.52621   0.06523   0.08067   0.01267  Uiso   1.00
O9     O     0.17293   0.42185   0.45822   0.01267  Uiso   1.00
O10    O     0.33792   0.99500   0.05525   0.01267  Uiso   1.00
O11    O     0.93477   0.47379   0.41933   0.01267  Uiso   1.00
O12    O     0.57815   0.82707   0.04178   0.01267  Uiso   1.00
S1     S     0.53669   0.97725   0.54637   0.01267  Uiso   1.00
S2     S     0.46331   0.02275   0.45363   0.01267  Uiso   1.00
O13    O     0.65550   0.91170   0.52750   0.01267  Uiso   1.00
O14    O     0.46760   0.90620   0.59870   0.01267  Uiso   1.00
O15    O     0.51500   0.08600   0.56760   0.01267  Uiso   1.00
O16    O     0.34450   0.08830   0.47250   0.01267  Uiso   1.00
O17    O     0.53240   0.09380   0.40130   0.01267  Uiso   1.00
O18    O     0.48500   0.91400   0.43240   0.01267  Uiso   1.00
S3     S     0.02275   0.46331   0.95363   0.01267  Uiso   1.00
S4     S     0.97725   0.53669   0.04637   0.01267  Uiso   1.00
O19    O     0.08830   0.34450   0.97250   0.01267  Uiso   1.00
O20    O     0.09380   0.53240   0.90130   0.01267  Uiso   1.00
O21    O     0.91400   0.48500   0.93240   0.01267  Uiso   1.00
O22    O     0.91170   0.65550   0.02750   0.01267  Uiso   1.00
O23    O     0.90620   0.46760   0.09870   0.01267  Uiso   1.00
O24    O     0.08600   0.51500   0.06760   0.01267  Uiso   1.00
