data_WEHPOP_charged
_audit_creation_date              2014-07-02
_audit_creation_method            'Materials Studio'
_symmetry_space_group_name_H-M    'P1'
_symmetry_Int_Tables_number       1
_symmetry_cell_setting            triclinic
loop_
_symmetry_equiv_pos_as_xyz
  x,y,z
_cell_length_a                    12.4100
_cell_length_b                    12.4100
_cell_length_c                    20.0200
_cell_angle_alpha                 76.4777
_cell_angle_beta                  76.4777
_cell_angle_gamma                 65.8960
loop_
_atom_site_label
_atom_site_type_symbol
_atom_site_fract_x
_atom_site_fract_y
_atom_site_fract_z
_atom_site_U_iso_or_equiv
_atom_site_adp_type
_atom_site_occupancy
Ni1    Ni    1.00000   0.50000   0.50000   0.01267  Uiso   1.00
Ni2    Ni    0.50000   0.00000  -0.00000   0.01267  Uiso   1.00
H1     H     0.22690   0.17850   0.55330   0.01267  Uiso   1.00
H2     H     0.31340   0.08640   0.64630   0.01267  Uiso   1.00
H3     H     0.03960   0.27600   0.77560   0.01267  Uiso   1.00
H4     H     0.94750   0.38110   0.66460   0.01267  Uiso   1.00
H5     H     0.49820   0.87620   0.81190   0.01267  Uiso   1.00
H6     H     0.39810   0.99470   0.71700   0.01267  Uiso   1.00
H7     H     0.15570   0.22930   0.85160   0.01267  Uiso   1.00
H8     H     0.27620   0.08920   0.94540   0.01267  Uiso   1.00
H9     H     0.66040   0.70920   0.49250   0.01267  Uiso   1.00
H10    H     0.47740   0.68500   0.49350   0.01267  Uiso   1.00
H11    H     0.65510   0.34570   0.53480   0.01267  Uiso   1.00
H12    H     0.81820   0.37640   0.55570   0.01267  Uiso   1.00
H13    H     0.82150   0.77310   0.94670   0.01267  Uiso   1.00
H14    H     0.91360   0.68660   0.85370   0.01267  Uiso   1.00
H15    H     0.72400   0.96040   0.72440   0.01267  Uiso   1.00
H16    H     0.61890   0.05250   0.83540   0.01267  Uiso   1.00
H17    H     0.12380   0.50180   0.68810   0.01267  Uiso   1.00
H18    H     0.00530   0.60190   0.78300   0.01267  Uiso   1.00
H19    H     0.77070   0.84430   0.64840   0.01267  Uiso   1.00
H20    H     0.91080   0.72380   0.55460   0.01267  Uiso   1.00
H21    H     0.29080   0.33960   0.00750   0.01267  Uiso   1.00
H22    H     0.31500   0.52260   0.00650   0.01267  Uiso   1.00
H23    H     0.65430   0.34490   0.96520   0.01267  Uiso   1.00
H24    H     0.62360   0.18180   0.94430   0.01267  Uiso   1.00
H25    H     0.77310   0.82150   0.44670   0.01267  Uiso   1.00
H26    H     0.68660   0.91360   0.35370   0.01267  Uiso   1.00
H27    H     0.96040   0.72400   0.22440   0.01267  Uiso   1.00
H28    H     0.05250   0.61890   0.33540   0.01267  Uiso   1.00
H29    H     0.50180   0.12380   0.18810   0.01267  Uiso   1.00
H30    H     0.60190   0.00530   0.28300   0.01267  Uiso   1.00
H31    H     0.84430   0.77070   0.14840   0.01267  Uiso   1.00
H32    H     0.72380   0.91080   0.05460   0.01267  Uiso   1.00
H33    H     0.33960   0.29080   0.50750   0.01267  Uiso   1.00
H34    H     0.52260   0.31500   0.50650   0.01267  Uiso   1.00
H35    H     0.34490   0.65430   0.46520   0.01267  Uiso   1.00
H36    H     0.18180   0.62360   0.44430   0.01267  Uiso   1.00
H37    H     0.17850   0.22690   0.05330   0.01267  Uiso   1.00
H38    H     0.08640   0.31340   0.14630   0.01267  Uiso   1.00
H39    H     0.27600   0.03960   0.27560   0.01267  Uiso   1.00
H40    H     0.38110   0.94750   0.16460   0.01267  Uiso   1.00
H41    H     0.87620   0.49820   0.31190   0.01267  Uiso   1.00
H42    H     0.99470   0.39810   0.21700   0.01267  Uiso   1.00
H43    H     0.22930   0.15570   0.35160   0.01267  Uiso   1.00
H44    H     0.08920   0.27620   0.44540   0.01267  Uiso   1.00
H45    H     0.70920   0.66040   0.99250   0.01267  Uiso   1.00
H46    H     0.68500   0.47740   0.99350   0.01267  Uiso   1.00
H47    H     0.34570   0.65510   0.03480   0.01267  Uiso   1.00
H48    H     0.37640   0.81820   0.05570   0.01267  Uiso   1.00
C1     C     0.18880   0.19660   0.59740   0.01267  Uiso   1.00
C2     C     0.23740   0.14560   0.65200   0.01267  Uiso   1.00
C3     C     0.18870   0.16970   0.71770   0.01267  Uiso   1.00
C4     C     0.07660   0.25660   0.73160   0.01267  Uiso   1.00
C5     C     0.02090   0.31750   0.66410   0.01267  Uiso   1.00
C6     C     0.43410   0.94810   0.81660   0.01267  Uiso   1.00
C7     C     0.37060   0.01260   0.76200   0.01267  Uiso   1.00
C8     C     0.24850   0.11830   0.78110   0.01267  Uiso   1.00
C9     C     0.21930   0.15850   0.84320   0.01267  Uiso   1.00
C10    C     0.29890   0.07810   0.89910   0.01267  Uiso   1.00
C11    C     0.65190   0.63590   0.50780   0.01267  Uiso   1.00
C12    C     0.54660   0.61960   0.50280   0.01267  Uiso   1.00
C13    C     0.55010   0.51170   0.51160   0.01267  Uiso   1.00
C14    C     0.65070   0.42370   0.53000   0.01267  Uiso   1.00
C15    C     0.74920   0.43840   0.54270   0.01267  Uiso   1.00
C16    C     0.80340   0.81120   0.90260   0.01267  Uiso   1.00
C17    C     0.85440   0.76260   0.84800   0.01267  Uiso   1.00
C18    C     0.83030   0.81130   0.78230   0.01267  Uiso   1.00
C19    C     0.74340   0.92340   0.76840   0.01267  Uiso   1.00
C20    C     0.68250   0.97910   0.83590   0.01267  Uiso   1.00
C21    C     0.05190   0.56590   0.68340   0.01267  Uiso   1.00
C22    C     0.98740   0.62940   0.73800   0.01267  Uiso   1.00
C23    C     0.88170   0.75150   0.71890   0.01267  Uiso   1.00
C24    C     0.84150   0.78070   0.65680   0.01267  Uiso   1.00
C25    C     0.92190   0.70110   0.60090   0.01267  Uiso   1.00
C26    C     0.36410   0.34810   0.99220   0.01267  Uiso   1.00
C27    C     0.38040   0.45340   0.99720   0.01267  Uiso   1.00
C28    C     0.48830   0.44990   0.98840   0.01267  Uiso   1.00
C29    C     0.57630   0.34930   0.97000   0.01267  Uiso   1.00
C30    C     0.56160   0.25080   0.95730   0.01267  Uiso   1.00
C31    C     0.81120   0.80340   0.40260   0.01267  Uiso   1.00
C32    C     0.76260   0.85440   0.34800   0.01267  Uiso   1.00
C33    C     0.81130   0.83030   0.28230   0.01267  Uiso   1.00
C34    C     0.92340   0.74340   0.26840   0.01267  Uiso   1.00
C35    C     0.97910   0.68250   0.33590   0.01267  Uiso   1.00
C36    C     0.56590   0.05190   0.18340   0.01267  Uiso   1.00
C37    C     0.62940   0.98740   0.23800   0.01267  Uiso   1.00
C38    C     0.75150   0.88170   0.21890   0.01267  Uiso   1.00
C39    C     0.78070   0.84150   0.15680   0.01267  Uiso   1.00
C40    C     0.70110   0.92190   0.10090   0.01267  Uiso   1.00
C41    C     0.34810   0.36410   0.49220   0.01267  Uiso   1.00
C42    C     0.45340   0.38040   0.49720   0.01267  Uiso   1.00
C43    C     0.44990   0.48830   0.48840   0.01267  Uiso   1.00
C44    C     0.34930   0.57630   0.47000   0.01267  Uiso   1.00
C45    C     0.25080   0.56160   0.45730   0.01267  Uiso   1.00
C46    C     0.19660   0.18880   0.09740   0.01267  Uiso   1.00
C47    C     0.14560   0.23740   0.15200   0.01267  Uiso   1.00
C48    C     0.16970   0.18870   0.21770   0.01267  Uiso   1.00
C49    C     0.25660   0.07660   0.23160   0.01267  Uiso   1.00
C50    C     0.31750   0.02090   0.16410   0.01267  Uiso   1.00
C51    C     0.94810   0.43410   0.31660   0.01267  Uiso   1.00
C52    C     0.01260   0.37060   0.26200   0.01267  Uiso   1.00
C53    C     0.11830   0.24850   0.28110   0.01267  Uiso   1.00
C54    C     0.15850   0.21930   0.34320   0.01267  Uiso   1.00
C55    C     0.07810   0.29890   0.39910   0.01267  Uiso   1.00
C56    C     0.63590   0.65190   0.00780   0.01267  Uiso   1.00
C57    C     0.61960   0.54660   0.00280   0.01267  Uiso   1.00
C58    C     0.51170   0.55010   0.01160   0.01267  Uiso   1.00
C59    C     0.42370   0.65070   0.03000   0.01267  Uiso   1.00
C60    C     0.43840   0.74920   0.04270   0.01267  Uiso   1.00
N1     N     0.07820   0.27820   0.60920   0.01267  Uiso   1.00
N2     N     0.39930   0.99430   0.87800   0.01267  Uiso   1.00
N3     N     0.73160   0.54640   0.53400   0.01267  Uiso   1.00
N4     N     0.72180   0.92180   0.89080   0.01267  Uiso   1.00
N5     N     0.00570   0.60070   0.62200   0.01267  Uiso   1.00
N6     N     0.45360   0.26840   0.96600   0.01267  Uiso   1.00
N7     N     0.92180   0.72180   0.39080   0.01267  Uiso   1.00
N8     N     0.60070   0.00570   0.12200   0.01267  Uiso   1.00
N9     N     0.26840   0.45360   0.46600   0.01267  Uiso   1.00
N10    N     0.27820   0.07820   0.10920   0.01267  Uiso   1.00
N11    N     0.99430   0.39930   0.37800   0.01267  Uiso   1.00
N12    N     0.54640   0.73160   0.03400   0.01267  Uiso   1.00
O1     O     0.01610   0.32670   0.55170   0.01267  Uiso   1.00
O2     O     0.47370   0.92910   0.92590   0.01267  Uiso   1.00
O3     O     0.82960   0.57120   0.54570   0.01267  Uiso   1.00
O4     O     0.67330   0.98390   0.94830   0.01267  Uiso   1.00
O5     O     0.07090   0.52630   0.57410   0.01267  Uiso   1.00
O6     O     0.42880   0.17040   0.95430   0.01267  Uiso   1.00
O7     O     0.98390   0.67330   0.44830   0.01267  Uiso   1.00
O8     O     0.52630   0.07090   0.07410   0.01267  Uiso   1.00
O9     O     0.17040   0.42880   0.45430   0.01267  Uiso   1.00
O10    O     0.32670   0.01610   0.05170   0.01267  Uiso   1.00
O11    O     0.92910   0.47370   0.42590   0.01267  Uiso   1.00
O12    O     0.57120   0.82960   0.04570   0.01267  Uiso   1.00
S1     S     0.53490   0.98070   0.55130   0.01267  Uiso   1.00
S2     S     0.46510   0.01930   0.44870   0.01267  Uiso   1.00
O13    O     0.65590   0.92990   0.50470   0.01267  Uiso   1.00
O14    O     0.47650   0.89650   0.60730   0.01267  Uiso   1.00
O15    O     0.52050   0.10250   0.56030   0.01267  Uiso   1.00
O16    O     0.34410   0.07010   0.49530   0.01267  Uiso   1.00
O17    O     0.52350   0.10350   0.39270   0.01267  Uiso   1.00
O18    O     0.47950   0.89750   0.43970   0.01267  Uiso   1.00
S3     S     0.01930   0.46510   0.94870   0.01267  Uiso   1.00
S4     S     0.98070   0.53490   0.05130   0.01267  Uiso   1.00
O19    O     0.07010   0.34410   0.99530   0.01267  Uiso   1.00
O20    O     0.10350   0.52350   0.89270   0.01267  Uiso   1.00
O21    O     0.89750   0.47950   0.93970   0.01267  Uiso   1.00
O22    O     0.92990   0.65590   0.00470   0.01267  Uiso   1.00
O23    O     0.89650   0.47650   0.10730   0.01267  Uiso   1.00
O24    O     0.10250   0.52050   0.06030   0.01267  Uiso   1.00
