data_WEHQEG_charged
_audit_creation_date              2014-07-02
_audit_creation_method            'Materials Studio'
_symmetry_space_group_name_H-M    'P1'
_symmetry_Int_Tables_number       1
_symmetry_cell_setting            triclinic
loop_
_symmetry_equiv_pos_as_xyz
  x,y,z
_cell_length_a                    15.0216
_cell_length_b                    15.0216
_cell_length_c                    21.0014
_cell_angle_alpha                 73.0508
_cell_angle_beta                  73.0511
_cell_angle_gamma                 100.6530
loop_
_atom_site_label
_atom_site_type_symbol
_atom_site_fract_x
_atom_site_fract_y
_atom_site_fract_z
_atom_site_U_iso_or_equiv
_atom_site_adp_type
_atom_site_occupancy
Ag1    Ag    0.80469   0.34767   0.59770   0.01267  Uiso   1.00
Ag2    Ag    0.94537   0.40239   0.40230   0.01267  Uiso   1.00
Ag3    Ag    0.65239   0.69537   0.90230   0.01267  Uiso   1.00
Ag4    Ag    0.59767   0.55469   0.09770   0.01267  Uiso   1.00
H1     H     0.70140   0.13120   0.68140   0.01267  Uiso   1.00
H2     H     0.59590   0.03570   0.79160   0.01267  Uiso   1.00
H3     H     0.43740   0.95880   0.81020   0.01267  Uiso   1.00
H4     H     0.49590   0.08470   0.59960   0.01267  Uiso   1.00
H5     H     0.13580   0.79840   0.84120   0.01267  Uiso   1.00
H6     H     0.97930   0.71910   0.85820   0.01267  Uiso   1.00
H7     H     0.00270   0.90090   0.67060   0.01267  Uiso   1.00
H8     H     0.16490   0.97050   0.64660   0.01267  Uiso   1.00
H9     H     0.83080   0.50440   0.65420   0.01267  Uiso   1.00
H10    H     0.80280   0.51780   0.76600   0.01267  Uiso   1.00
H11    H     0.93410   0.57630   0.79360   0.01267  Uiso   1.00
H12    H     0.11850   0.59330   0.60900   0.01267  Uiso   1.00
H13    H     0.36280   0.72140   0.66140   0.01267  Uiso   1.00
H14    H     0.50140   0.77480   0.68820   0.01267  Uiso   1.00
H15    H     0.32800   0.67580   0.89560   0.01267  Uiso   1.00
H16    H     0.19320   0.62720   0.86480   0.01267  Uiso   1.00
H17    H     0.81260   0.38280   0.31860   0.01267  Uiso   1.00
H18    H     0.82730   0.38750   0.20840   0.01267  Uiso   1.00
H19    H     0.76900   0.24760   0.18980   0.01267  Uiso   1.00
H20    H     0.68430   0.09550   0.40040   0.01267  Uiso   1.00
H21    H     0.63960   0.97700   0.15880   0.01267  Uiso   1.00
H22    H     0.57730   0.83750   0.14180   0.01267  Uiso   1.00
H23    H     0.57150   0.67330   0.32940   0.01267  Uiso   1.00
H24    H     0.61710   0.81150   0.35340   0.01267  Uiso   1.00
H25    H     0.15860   0.48500   0.34580   0.01267  Uiso   1.00
H26    H     0.28380   0.56880   0.23400   0.01267  Uiso   1.00
H27    H     0.36990   0.72770   0.20640   0.01267  Uiso   1.00
H28    H     0.20230   0.72750   0.39100   0.01267  Uiso   1.00
H29    H     0.38280   0.02420   0.33860   0.01267  Uiso   1.00
H30    H     0.46300   0.18960   0.31180   0.01267  Uiso   1.00
H31    H     0.57140   0.22360   0.10440   0.01267  Uiso   1.00
H32    H     0.49200   0.05800   0.13520   0.01267  Uiso   1.00
H33    H     0.63280   0.56260   0.81860   0.01267  Uiso   1.00
H34    H     0.63750   0.57730   0.70840   0.01267  Uiso   1.00
H35    H     0.49760   0.51900   0.68980   0.01267  Uiso   1.00
H36    H     0.34550   0.43430   0.90040   0.01267  Uiso   1.00
H37    H     0.22700   0.38960   0.65880   0.01267  Uiso   1.00
H38    H     0.08750   0.32730   0.64180   0.01267  Uiso   1.00
H39    H     0.92330   0.32150   0.82940   0.01267  Uiso   1.00
H40    H     0.06150   0.36710   0.85340   0.01267  Uiso   1.00
H41    H     0.73500   0.90860   0.84580   0.01267  Uiso   1.00
H42    H     0.81880   0.03380   0.73400   0.01267  Uiso   1.00
H43    H     0.97770   0.11990   0.70640   0.01267  Uiso   1.00
H44    H     0.97750   0.95230   0.89100   0.01267  Uiso   1.00
H45    H     0.27420   0.13280   0.83860   0.01267  Uiso   1.00
H46    H     0.43960   0.21300   0.81180   0.01267  Uiso   1.00
H47    H     0.47360   0.32140   0.60440   0.01267  Uiso   1.00
H48    H     0.30800   0.24200   0.63520   0.01267  Uiso   1.00
H49    H     0.38120   0.45140   0.18140   0.01267  Uiso   1.00
H50    H     0.28570   0.34590   0.29160   0.01267  Uiso   1.00
H51    H     0.20880   0.18740   0.31020   0.01267  Uiso   1.00
H52    H     0.33470   0.24590   0.09960   0.01267  Uiso   1.00
H53    H     0.04840   0.88580   0.34120   0.01267  Uiso   1.00
H54    H     0.96910   0.72930   0.35820   0.01267  Uiso   1.00
H55    H     0.15090   0.75270   0.17060   0.01267  Uiso   1.00
H56    H     0.22050   0.91490   0.14660   0.01267  Uiso   1.00
H57    H     0.75440   0.58080   0.15420   0.01267  Uiso   1.00
H58    H     0.76780   0.55280   0.26600   0.01267  Uiso   1.00
H59    H     0.82630   0.68410   0.29360   0.01267  Uiso   1.00
H60    H     0.84330   0.86850   0.10900   0.01267  Uiso   1.00
H61    H     0.97140   0.11280   0.16140   0.01267  Uiso   1.00
H62    H     0.02480   0.25140   0.18820   0.01267  Uiso   1.00
H63    H     0.92580   0.07800   0.39560   0.01267  Uiso   1.00
H64    H     0.87720   0.94320   0.36480   0.01267  Uiso   1.00
C1     C     0.68110   0.18330   0.55700   0.01267  Uiso   1.00
C2     C     0.61140   0.11900   0.62780   0.01267  Uiso   1.00
C3     C     0.63770   0.10190   0.68740   0.01267  Uiso   1.00
C4     C     0.57530   0.04510   0.75300   0.01267  Uiso   1.00
C5     C     0.48010   0.00010   0.76440   0.01267  Uiso   1.00
C6     C     0.44770   0.01650   0.70700   0.01267  Uiso   1.00
C7     C     0.51540   0.07500   0.63860   0.01267  Uiso   1.00
C8     C     0.34990   0.97290   0.71800   0.01267  Uiso   1.00
C9     C     0.26770   0.93430   0.72820   0.01267  Uiso   1.00
C10    C     0.16680   0.89060   0.74000   0.01267  Uiso   1.00
C11    C     0.11060   0.81700   0.80540   0.01267  Uiso   1.00
C12    C     0.01640   0.77220   0.81600   0.01267  Uiso   1.00
C13    C     0.97580   0.80200   0.76820   0.01267  Uiso   1.00
C14    C     0.87470   0.75770   0.78280   0.01267  Uiso   1.00
C15    C     0.03050   0.87850   0.70400   0.01267  Uiso   1.00
C16    C     0.12670   0.92070   0.69040   0.01267  Uiso   1.00
C17    C     0.99880   0.52960   0.55420   0.01267  Uiso   1.00
C18    C     0.97510   0.54130   0.62260   0.01267  Uiso   1.00
C19    C     0.88300   0.52340   0.66740   0.01267  Uiso   1.00
C20    C     0.86600   0.53320   0.73380   0.01267  Uiso   1.00
C21    C     0.94470   0.56610   0.75080   0.01267  Uiso   1.00
C22    C     0.03820   0.58420   0.70600   0.01267  Uiso   1.00
C23    C     0.05500   0.57620   0.64120   0.01267  Uiso   1.00
C24    C     0.11920   0.61880   0.72480   0.01267  Uiso   1.00
C25    C     0.18630   0.64010   0.74120   0.01267  Uiso   1.00
C26    C     0.26860   0.67020   0.76080   0.01267  Uiso   1.00
C27    C     0.35620   0.71240   0.70860   0.01267  Uiso   1.00
C28    C     0.44030   0.74430   0.72460   0.01267  Uiso   1.00
C29    C     0.42900   0.72880   0.79480   0.01267  Uiso   1.00
C30    C     0.51040   0.75320   0.81440   0.01267  Uiso   1.00
C31    C     0.33640   0.68540   0.84820   0.01267  Uiso   1.00
C32    C     0.25530   0.65610   0.82960   0.01267  Uiso   1.00
C33    C     0.74030   0.23810   0.44300   0.01267  Uiso   1.00
C34    C     0.74680   0.23920   0.37220   0.01267  Uiso   1.00
C35    C     0.78930   0.32510   0.31260   0.01267  Uiso   1.00
C36    C     0.79810   0.32830   0.24700   0.01267  Uiso   1.00
C37    C     0.76450   0.24450   0.23560   0.01267  Uiso   1.00
C38    C     0.72350   0.15470   0.29300   0.01267  Uiso   1.00
C39    C     0.71360   0.15400   0.36140   0.01267  Uiso   1.00
C40    C     0.69090   0.06790   0.28200   0.01267  Uiso   1.00
C41    C     0.66250   0.99590   0.27180   0.01267  Uiso   1.00
C42    C     0.63060   0.90680   0.26000   0.01267  Uiso   1.00
C43    C     0.62240   0.91600   0.19460   0.01267  Uiso   1.00
C44    C     0.58820   0.83240   0.18400   0.01267  Uiso   1.00
C45    C     0.57020   0.74400   0.23180   0.01267  Uiso   1.00
C46    C     0.54050   0.65750   0.21720   0.01267  Uiso   1.00
C47    C     0.58250   0.73450   0.29600   0.01267  Uiso   1.00
C48    C     0.61110   0.81710   0.30960   0.01267  Uiso   1.00
C49    C     0.08380   0.55300   0.44580   0.01267  Uiso   1.00
C50    C     0.16390   0.59770   0.37740   0.01267  Uiso   1.00
C51    C     0.19080   0.55040   0.33260   0.01267  Uiso   1.00
C52    C     0.26700   0.59980   0.26620   0.01267  Uiso   1.00
C53    C     0.31690   0.69550   0.24920   0.01267  Uiso   1.00
C54    C     0.29020   0.74420   0.29400   0.01267  Uiso   1.00
C55    C     0.21740   0.69620   0.35880   0.01267  Uiso   1.00
C56    C     0.34360   0.84400   0.27520   0.01267  Uiso   1.00
C57    C     0.38130   0.92750   0.25880   0.01267  Uiso   1.00
C58    C     0.43100   0.02940   0.23920   0.01267  Uiso   1.00
C59    C     0.42100   0.06480   0.29140   0.01267  Uiso   1.00
C60    C     0.46890   0.16490   0.27540   0.01267  Uiso   1.00
C61    C     0.52360   0.22380   0.20520   0.01267  Uiso   1.00
C62    C     0.56760   0.32480   0.18560   0.01267  Uiso   1.00
C63    C     0.53360   0.18460   0.15180   0.01267  Uiso   1.00
C64    C     0.48570   0.08490   0.17040   0.01267  Uiso   1.00
C65    C     0.48810   0.49030   0.94300   0.01267  Uiso   1.00
C66    C     0.48920   0.49680   0.87220   0.01267  Uiso   1.00
C67    C     0.57510   0.53930   0.81260   0.01267  Uiso   1.00
C68    C     0.57830   0.54810   0.74700   0.01267  Uiso   1.00
C69    C     0.49450   0.51450   0.73560   0.01267  Uiso   1.00
C70    C     0.40470   0.47350   0.79300   0.01267  Uiso   1.00
C71    C     0.40400   0.46360   0.86140   0.01267  Uiso   1.00
C72    C     0.31790   0.44090   0.78200   0.01267  Uiso   1.00
C73    C     0.24590   0.41250   0.77180   0.01267  Uiso   1.00
C74    C     0.15680   0.38060   0.76000   0.01267  Uiso   1.00
C75    C     0.16600   0.37240   0.69460   0.01267  Uiso   1.00
C76    C     0.08240   0.33820   0.68400   0.01267  Uiso   1.00
C77    C     0.99400   0.32020   0.73180   0.01267  Uiso   1.00
C78    C     0.90750   0.29050   0.71720   0.01267  Uiso   1.00
C79    C     0.98450   0.33250   0.79600   0.01267  Uiso   1.00
C80    C     0.06710   0.36110   0.80960   0.01267  Uiso   1.00
C81    C     0.80300   0.83380   0.94580   0.01267  Uiso   1.00
C82    C     0.84770   0.91390   0.87740   0.01267  Uiso   1.00
C83    C     0.80040   0.94080   0.83260   0.01267  Uiso   1.00
C84    C     0.84980   0.01700   0.76620   0.01267  Uiso   1.00
C85    C     0.94550   0.06690   0.74920   0.01267  Uiso   1.00
C86    C     0.99420   0.04020   0.79400   0.01267  Uiso   1.00
C87    C     0.94620   0.96740   0.85880   0.01267  Uiso   1.00
C88    C     0.09400   0.09360   0.77520   0.01267  Uiso   1.00
C89    C     0.17750   0.13130   0.75880   0.01267  Uiso   1.00
C90    C     0.27940   0.18100   0.73920   0.01267  Uiso   1.00
C91    C     0.31480   0.17100   0.79140   0.01267  Uiso   1.00
C92    C     0.41490   0.21890   0.77540   0.01267  Uiso   1.00
C93    C     0.47380   0.27360   0.70520   0.01267  Uiso   1.00
C94    C     0.57480   0.31760   0.68560   0.01267  Uiso   1.00
C95    C     0.43460   0.28360   0.65180   0.01267  Uiso   1.00
C96    C     0.33490   0.23570   0.67040   0.01267  Uiso   1.00
C97    C     0.43330   0.43110   0.05700   0.01267  Uiso   1.00
C98    C     0.36900   0.36140   0.12780   0.01267  Uiso   1.00
C99    C     0.35190   0.38770   0.18740   0.01267  Uiso   1.00
C100   C     0.29510   0.32530   0.25300   0.01267  Uiso   1.00
C101   C     0.25010   0.23010   0.26440   0.01267  Uiso   1.00
C102   C     0.26650   0.19770   0.20700   0.01267  Uiso   1.00
C103   C     0.32500   0.26540   0.13860   0.01267  Uiso   1.00
C104   C     0.22290   0.09990   0.21800   0.01267  Uiso   1.00
C105   C     0.18430   0.01770   0.22820   0.01267  Uiso   1.00
C106   C     0.14060   0.91680   0.24000   0.01267  Uiso   1.00
C107   C     0.06700   0.86060   0.30540   0.01267  Uiso   1.00
C108   C     0.02220   0.76640   0.31600   0.01267  Uiso   1.00
C109   C     0.05200   0.72580   0.26820   0.01267  Uiso   1.00
C110   C     0.00770   0.62470   0.28280   0.01267  Uiso   1.00
C111   C     0.12850   0.78050   0.20400   0.01267  Uiso   1.00
C112   C     0.17070   0.87670   0.19040   0.01267  Uiso   1.00
C113   C     0.77960   0.74880   0.05420   0.01267  Uiso   1.00
C114   C     0.79130   0.72510   0.12260   0.01267  Uiso   1.00
C115   C     0.77340   0.63300   0.16740   0.01267  Uiso   1.00
C116   C     0.78320   0.61600   0.23380   0.01267  Uiso   1.00
C117   C     0.81610   0.69470   0.25080   0.01267  Uiso   1.00
C118   C     0.83420   0.78820   0.20600   0.01267  Uiso   1.00
C119   C     0.82620   0.80500   0.14120   0.01267  Uiso   1.00
C120   C     0.86880   0.86920   0.22480   0.01267  Uiso   1.00
C121   C     0.89010   0.93630   0.24120   0.01267  Uiso   1.00
C122   C     0.92020   0.01860   0.26080   0.01267  Uiso   1.00
C123   C     0.96240   0.10620   0.20860   0.01267  Uiso   1.00
C124   C     0.99430   0.19030   0.22460   0.01267  Uiso   1.00
C125   C     0.97880   0.17900   0.29480   0.01267  Uiso   1.00
C126   C     0.00320   0.26040   0.31440   0.01267  Uiso   1.00
C127   C     0.93540   0.08640   0.34820   0.01267  Uiso   1.00
C128   C     0.90610   0.00530   0.32960   0.01267  Uiso   1.00
N1     N     0.94818   0.46798   0.53584   0.01267  Uiso   1.00
N2     N     0.75230   0.25490   0.53780   0.01267  Uiso   1.00
N3     N     0.57770   0.77170   0.82920   0.01267  Uiso   1.00
N4     N     0.79380   0.72000   0.79820   0.01267  Uiso   1.00
N5     N     0.00382   0.48402   0.46416   0.01267  Uiso   1.00
N6     N     0.79270   0.29010   0.46220   0.01267  Uiso   1.00
N7     N     0.60090   0.40690   0.17080   0.01267  Uiso   1.00
N8     N     0.51820   0.59200   0.20180   0.01267  Uiso   1.00
N9     N     0.73402   0.75382   0.96416   0.01267  Uiso   1.00
N10    N     0.54010   0.54270   0.96220   0.01267  Uiso   1.00
N11    N     0.65690   0.35090   0.67080   0.01267  Uiso   1.00
N12    N     0.84200   0.26820   0.70180   0.01267  Uiso   1.00
N13    N     0.71798   0.69818   0.03584   0.01267  Uiso   1.00
N14    N     0.50490   0.50230   0.03780   0.01267  Uiso   1.00
N15    N     0.02170   0.32770   0.32920   0.01267  Uiso   1.00
N16    N     0.97000   0.54380   0.29820   0.01267  Uiso   1.00
O1     O     0.08340   0.58340   0.50000   0.01267  Uiso   1.00
O2     O     0.66500   0.16500   0.50000   0.01267  Uiso   1.00
O3     O     0.83340   0.83340  -0.00000   0.01267  Uiso   1.00
O4     O     0.41500   0.41500  -0.00000   0.01267  Uiso   1.00
Sb1    Sb    0.71391   0.61299   0.49420   0.01267  Uiso   1.00
F1     F     0.80250   0.72630   0.44200   0.01267  Uiso   1.00
F2     F     0.76250   0.60090   0.56340   0.01267  Uiso   1.00
F3     F     0.61670   0.51190   0.55200   0.01267  Uiso   1.00
F4     F     0.66250   0.62510   0.42860   0.01267  Uiso   1.00
F5     F     0.64300   0.68320   0.53200   0.01267  Uiso   1.00
F6     F     0.79420   0.55580   0.46520   0.01267  Uiso   1.00
Sb2    Sb    0.10719   0.20811   0.50580   0.01267  Uiso   1.00
F7     F     0.16830   0.24450   0.55800   0.01267  Uiso   1.00
F8     F     0.16430   0.32590   0.43660   0.01267  Uiso   1.00
F9     F     0.06390   0.16870   0.44800   0.01267  Uiso   1.00
F10    F     0.05370   0.09110   0.57140   0.01267  Uiso   1.00
F11    F     0.21520   0.17500   0.46800   0.01267  Uiso   1.00
F12    F     0.02100   0.25940   0.53480   0.01267  Uiso   1.00
Sb3    Sb    0.45811   0.85719   0.00580   0.01267  Uiso   1.00
F13    F     0.49450   0.91830   0.05800   0.01267  Uiso   1.00
F14    F     0.57590   0.91430   0.93660   0.01267  Uiso   1.00
F15    F     0.41870   0.81390   0.94800   0.01267  Uiso   1.00
F16    F     0.34110   0.80370   0.07140   0.01267  Uiso   1.00
F17    F     0.42500   0.96520   0.96800   0.01267  Uiso   1.00
F18    F     0.50940   0.77100   0.03480   0.01267  Uiso   1.00
Sb4    Sb    0.86299   0.46391   0.99420   0.01267  Uiso   1.00
F19    F     0.97630   0.55250   0.94200   0.01267  Uiso   1.00
F20    F     0.85090   0.51250   0.06340   0.01267  Uiso   1.00
F21    F     0.76190   0.36670   0.05200   0.01267  Uiso   1.00
F22    F     0.87510   0.41250   0.92860   0.01267  Uiso   1.00
F23    F     0.93320   0.39300   0.03200   0.01267  Uiso   1.00
F24    F     0.80580   0.54420   0.96520   0.01267  Uiso   1.00
