data_WIJDID_clean
_audit_creation_date              2014-07-02
_audit_creation_method            'Materials Studio'
_symmetry_space_group_name_H-M    'P1'
_symmetry_Int_Tables_number       1
_symmetry_cell_setting            triclinic
loop_
_symmetry_equiv_pos_as_xyz
  x,y,z
_cell_length_a                    3.6689
_cell_length_b                    17.8255
_cell_length_c                    15.9805
_cell_angle_alpha                 90.0000
_cell_angle_beta                  90.0000
_cell_angle_gamma                 90.0000
loop_
_atom_site_label
_atom_site_type_symbol
_atom_site_fract_x
_atom_site_fract_y
_atom_site_fract_z
_atom_site_U_iso_or_equiv
_atom_site_adp_type
_atom_site_occupancy
Cu1    Cu    0.84150   0.19781   0.15021   0.01267  Uiso   1.00
Cu2    Cu    0.18339   0.00825   0.16233   0.01267  Uiso   1.00
Cu3    Cu    0.41259   0.11435   0.34685   0.01267  Uiso   1.00
Cu4    Cu    0.15850   0.80219   0.65021   0.01267  Uiso   1.00
Cu5    Cu    0.81661   0.99175   0.66233   0.01267  Uiso   1.00
Cu6    Cu    0.58741   0.88565   0.84685   0.01267  Uiso   1.00
Cu7    Cu    0.65850   0.69781   0.15021   0.01267  Uiso   1.00
Cu8    Cu    0.31661   0.50825   0.16233   0.01267  Uiso   1.00
Cu9    Cu    0.08741   0.61435   0.34685   0.01267  Uiso   1.00
Cu10   Cu    0.34150   0.30219   0.65021   0.01267  Uiso   1.00
Cu11   Cu    0.68339   0.49175   0.66233   0.01267  Uiso   1.00
Cu12   Cu    0.91259   0.38565   0.84685   0.01267  Uiso   1.00
H1     H     0.54780   0.30640   0.23750   0.01267  Uiso   1.00
H2     H     0.41380   0.38530   0.23960   0.01267  Uiso   1.00
H3     H     0.06100   0.25910   0.91940   0.01267  Uiso   1.00
H4     H     0.04350   0.21180   0.99610   0.01267  Uiso   1.00
H5     H     0.48190   0.53170   0.00440   0.01267  Uiso   1.00
H6     H     0.63690   0.50060   0.92550   0.01267  Uiso   1.00
H7     H     0.45220   0.69360   0.73750   0.01267  Uiso   1.00
H8     H     0.58620   0.61470   0.73960   0.01267  Uiso   1.00
H9     H     0.93900   0.74090   0.41940   0.01267  Uiso   1.00
H10    H     0.95650   0.78820   0.49610   0.01267  Uiso   1.00
H11    H     0.51810   0.46830   0.50440   0.01267  Uiso   1.00
H12    H     0.36310   0.49940   0.42550   0.01267  Uiso   1.00
H13    H     0.95220   0.80640   0.23750   0.01267  Uiso   1.00
H14    H     0.08620   0.88530   0.23960   0.01267  Uiso   1.00
H15    H     0.43900   0.75910   0.91940   0.01267  Uiso   1.00
H16    H     0.45650   0.71180   0.99610   0.01267  Uiso   1.00
H17    H     0.01810   0.03170   0.00440   0.01267  Uiso   1.00
H18    H     0.86310   0.00060   0.92550   0.01267  Uiso   1.00
H19    H     0.04780   0.19360   0.73750   0.01267  Uiso   1.00
H20    H     0.91380   0.11470   0.73960   0.01267  Uiso   1.00
H21    H     0.56100   0.24090   0.41940   0.01267  Uiso   1.00
H22    H     0.54350   0.28820   0.49610   0.01267  Uiso   1.00
H23    H     0.98190   0.96830   0.50440   0.01267  Uiso   1.00
H24    H     0.13690   0.99940   0.42550   0.01267  Uiso   1.00
C1     C     0.85410   0.31030   0.01290   0.01267  Uiso   1.00
C2     C     0.61020   0.35740   0.13400   0.01267  Uiso   1.00
C3     C     0.64270   0.43070   0.01550   0.01267  Uiso   1.00
C4     C     0.14590   0.68970   0.51290   0.01267  Uiso   1.00
C5     C     0.38980   0.64260   0.63400   0.01267  Uiso   1.00
C6     C     0.35730   0.56930   0.51550   0.01267  Uiso   1.00
C7     C     0.64590   0.81030   0.01290   0.01267  Uiso   1.00
C8     C     0.88980   0.85740   0.13400   0.01267  Uiso   1.00
C9     C     0.85730   0.93070   0.01550   0.01267  Uiso   1.00
C10    C     0.35410   0.18970   0.51290   0.01267  Uiso   1.00
C11    C     0.11020   0.14260   0.63400   0.01267  Uiso   1.00
C12    C     0.14270   0.06930   0.51550   0.01267  Uiso   1.00
N1     N     0.79740   0.37499   0.97080   0.01267  Uiso   1.00
N2     N     0.51260   0.34870   0.21280   0.01267  Uiso   1.00
N3     N     0.76480   0.29888   0.09360   0.01267  Uiso   1.00
N4     N     0.54650   0.42556   0.09745   0.01267  Uiso   1.00
N5     N     0.00370   0.25379   0.97130   0.01267  Uiso   1.00
N6     N     0.57980   0.49520   0.97740   0.01267  Uiso   1.00
N7     N     0.20260   0.62501   0.47080   0.01267  Uiso   1.00
N8     N     0.48740   0.65130   0.71280   0.01267  Uiso   1.00
N9     N     0.23520   0.70112   0.59360   0.01267  Uiso   1.00
N10    N     0.45350   0.57444   0.59745   0.01267  Uiso   1.00
N11    N     0.99630   0.74621   0.47130   0.01267  Uiso   1.00
N12    N     0.42020   0.50480   0.47740   0.01267  Uiso   1.00
N13    N     0.70260   0.87499   0.97080   0.01267  Uiso   1.00
N14    N     0.98740   0.84870   0.21280   0.01267  Uiso   1.00
N15    N     0.73520   0.79888   0.09360   0.01267  Uiso   1.00
N16    N     0.95350   0.92556   0.09745   0.01267  Uiso   1.00
N17    N     0.49630   0.75379   0.97130   0.01267  Uiso   1.00
N18    N     0.92020   0.99520   0.97740   0.01267  Uiso   1.00
N19    N     0.29740   0.12501   0.47080   0.01267  Uiso   1.00
N20    N     0.01260   0.15130   0.71280   0.01267  Uiso   1.00
N21    N     0.26480   0.20112   0.59360   0.01267  Uiso   1.00
N22    N     0.04650   0.07444   0.59745   0.01267  Uiso   1.00
N23    N     0.50370   0.24621   0.47130   0.01267  Uiso   1.00
N24    N     0.07980   0.00480   0.47740   0.01267  Uiso   1.00
Cl1    Cl    0.89120   0.19229   0.29374   0.01267  Uiso   1.00
Cl2    Cl    0.32690   0.12100   0.09860   0.01267  Uiso   1.00
Cl3    Cl    0.48200   0.99900   0.28615   0.01267  Uiso   1.00
Cl4    Cl    0.10880   0.80771   0.79374   0.01267  Uiso   1.00
Cl5    Cl    0.67310   0.87900   0.59860   0.01267  Uiso   1.00
Cl6    Cl    0.51800   0.00100   0.78615   0.01267  Uiso   1.00
Cl7    Cl    0.60880   0.69229   0.29374   0.01267  Uiso   1.00
Cl8    Cl    0.17310   0.62100   0.09860   0.01267  Uiso   1.00
Cl9    Cl    0.01800   0.49900   0.28615   0.01267  Uiso   1.00
Cl10   Cl    0.39120   0.30771   0.79374   0.01267  Uiso   1.00
Cl11   Cl    0.82690   0.37900   0.59860   0.01267  Uiso   1.00
Cl12   Cl    0.98200   0.50100   0.78615   0.01267  Uiso   1.00
