data_WIWHUG_clean
_audit_creation_date              2014-07-02
_audit_creation_method            'Materials Studio'
_symmetry_space_group_name_H-M    'P1'
_symmetry_Int_Tables_number       1
_symmetry_cell_setting            triclinic
loop_
_symmetry_equiv_pos_as_xyz
  x,y,z
_cell_length_a                    6.6444
_cell_length_b                    7.9004
_cell_length_c                    24.9420
_cell_angle_alpha                 90.0000
_cell_angle_beta                  90.0000
_cell_angle_gamma                 91.7130
loop_
_atom_site_label
_atom_site_type_symbol
_atom_site_fract_x
_atom_site_fract_y
_atom_site_fract_z
_atom_site_U_iso_or_equiv
_atom_site_adp_type
_atom_site_occupancy
Cu1    Cu    0.62824   0.24638   0.68867   0.01267  Uiso   1.00
Cu2    Cu    0.12907   0.71551   0.76725   0.01267  Uiso   1.00
Cu3    Cu    0.37176   0.75362   0.18867   0.01267  Uiso   1.00
Cu4    Cu    0.87093   0.28449   0.26725   0.01267  Uiso   1.00
H1     H     0.61140   0.41240   0.58040   0.01267  Uiso   1.00
H2     H     0.81430   0.44820   0.50500   0.01267  Uiso   1.00
H3     H     0.24540   0.18890   0.58220   0.01267  Uiso   1.00
H4     H     0.03910   0.17130   0.65580   0.01267  Uiso   1.00
H5     H     0.12400   0.39610   0.45620   0.01267  Uiso   1.00
H6     H     0.38890   0.18070   0.50470   0.01267  Uiso   1.00
H7     H     0.70950   0.13840   0.45670   0.01267  Uiso   1.00
H8     H     0.90720   0.16600   0.38220   0.01267  Uiso   1.00
H9     H     0.46650   0.36610   0.30110   0.01267  Uiso   1.00
H10    H     0.25490   0.35680   0.37660   0.01267  Uiso   1.00
H11    H     0.09410   0.60290   0.62590   0.01267  Uiso   1.00
H12    H     0.19670   0.87830   0.61040   0.01267  Uiso   1.00
H13    H     0.39040   0.76370   0.60980   0.01267  Uiso   1.00
H14    H     0.58420   0.31850   0.83200   0.01267  Uiso   1.00
H15    H     0.84380   0.13090   0.84950   0.01267  Uiso   1.00
H16    H     0.64160   0.02610   0.83570   0.01267  Uiso   1.00
H17    H     0.90100   0.63000   0.70300   0.01267  Uiso   1.00
H18    H     0.39800   0.30800   0.77100   0.01267  Uiso   1.00
H19    H     0.94100   0.82600   0.69700   0.01267  Uiso   1.00
H20    H     0.42500   0.11300   0.76100   0.01267  Uiso   1.00
H21    H     0.38860   0.58760   0.08040   0.01267  Uiso   1.00
H22    H     0.18570   0.55180   0.00500   0.01267  Uiso   1.00
H23    H     0.75460   0.81110   0.08220   0.01267  Uiso   1.00
H24    H     0.96090   0.82870   0.15580   0.01267  Uiso   1.00
H25    H     0.87600   0.60390   0.95620   0.01267  Uiso   1.00
H26    H     0.61110   0.81930   0.00470   0.01267  Uiso   1.00
H27    H     0.29050   0.86160   0.95670   0.01267  Uiso   1.00
H28    H     0.09280   0.83400   0.88220   0.01267  Uiso   1.00
H29    H     0.53350   0.63390   0.80110   0.01267  Uiso   1.00
H30    H     0.74510   0.64320   0.87660   0.01267  Uiso   1.00
H31    H     0.90590   0.39710   0.12590   0.01267  Uiso   1.00
H32    H     0.80330   0.12170   0.11040   0.01267  Uiso   1.00
H33    H     0.60960   0.23630   0.10980   0.01267  Uiso   1.00
H34    H     0.41580   0.68150   0.33200   0.01267  Uiso   1.00
H35    H     0.15620   0.86910   0.34950   0.01267  Uiso   1.00
H36    H     0.35840   0.97390   0.33570   0.01267  Uiso   1.00
H37    H     0.09900   0.37000   0.20300   0.01267  Uiso   1.00
H38    H     0.60200   0.69200   0.27100   0.01267  Uiso   1.00
H39    H     0.05900   0.17400   0.19700   0.01267  Uiso   1.00
H40    H     0.57500   0.88700   0.26100   0.01267  Uiso   1.00
C1     C     0.74180   0.36630   0.58030   0.01267  Uiso   1.00
C2     C     0.86150   0.38670   0.53500   0.01267  Uiso   1.00
C3     C     0.04920   0.31730   0.53380   0.01267  Uiso   1.00
C4     C     0.11530   0.23540   0.58090   0.01267  Uiso   1.00
C5     C     0.99170   0.22370   0.62420   0.01267  Uiso   1.00
C6     C     0.17100   0.32680   0.48440   0.01267  Uiso   1.00
C7     C     0.34020   0.24690   0.47600   0.01267  Uiso   1.00
C8     C     0.45990   0.25080   0.42650   0.01267  Uiso   1.00
C9     C     0.65660   0.18970   0.42550   0.01267  Uiso   1.00
C10    C     0.77250   0.20280   0.38060   0.01267  Uiso   1.00
C11    C     0.51670   0.32090   0.33350   0.01267  Uiso   1.00
C12    C     0.38770   0.31610   0.37890   0.01267  Uiso   1.00
C13    C     0.30040   0.53700   0.68580   0.01267  Uiso   1.00
C14    C     0.16180   0.66440   0.65630   0.01267  Uiso   1.00
C15    C     0.28570   0.81060   0.63330   0.01267  Uiso   1.00
C16    C     0.38930   0.93010   0.67380   0.01267  Uiso   1.00
C17    C     0.80640   0.39040   0.77840   0.01267  Uiso   1.00
C18    C     0.65150   0.26490   0.80070   0.01267  Uiso   1.00
C19    C     0.74870   0.10090   0.82020   0.01267  Uiso   1.00
C20    C     0.86000   0.00170   0.77870   0.01267  Uiso   1.00
C21    C     0.25820   0.63370   0.08030   0.01267  Uiso   1.00
C22    C     0.13850   0.61330   0.03500   0.01267  Uiso   1.00
C23    C     0.95080   0.68270   0.03380   0.01267  Uiso   1.00
C24    C     0.88470   0.76460   0.08090   0.01267  Uiso   1.00
C25    C     0.00830   0.77630   0.12420   0.01267  Uiso   1.00
C26    C     0.82900   0.67320   0.98440   0.01267  Uiso   1.00
C27    C     0.65980   0.75310   0.97600   0.01267  Uiso   1.00
C28    C     0.54010   0.74920   0.92650   0.01267  Uiso   1.00
C29    C     0.34340   0.81030   0.92550   0.01267  Uiso   1.00
C30    C     0.22750   0.79720   0.88060   0.01267  Uiso   1.00
C31    C     0.48330   0.67910   0.83350   0.01267  Uiso   1.00
C32    C     0.61230   0.68390   0.87890   0.01267  Uiso   1.00
C33    C     0.69960   0.46300   0.18580   0.01267  Uiso   1.00
C34    C     0.83820   0.33560   0.15630   0.01267  Uiso   1.00
C35    C     0.71430   0.18940   0.13330   0.01267  Uiso   1.00
C36    C     0.61070   0.06990   0.17380   0.01267  Uiso   1.00
C37    C     0.19360   0.60960   0.27840   0.01267  Uiso   1.00
C38    C     0.34850   0.73510   0.30070   0.01267  Uiso   1.00
C39    C     0.25130   0.89910   0.32020   0.01267  Uiso   1.00
C40    C     0.14000   0.99830   0.27870   0.01267  Uiso   1.00
N1     N     0.80370   0.28400   0.62370   0.01267  Uiso   1.00
N2     N     0.70420   0.26570   0.33400   0.01267  Uiso   1.00
N3     N     0.00400   0.71650   0.69440   0.01267  Uiso   1.00
N4     N     0.49620   0.22390   0.75980   0.01267  Uiso   1.00
N5     N     0.19630   0.71600   0.12370   0.01267  Uiso   1.00
N6     N     0.29580   0.73430   0.83400   0.01267  Uiso   1.00
N7     N     0.99600   0.28350   0.19440   0.01267  Uiso   1.00
N8     N     0.50380   0.77610   0.25980   0.01267  Uiso   1.00
O1     O     0.41100   0.44970   0.65772   0.01267  Uiso   1.00
O2     O     0.29100   0.53350   0.73701   0.01267  Uiso   1.00
O3     O     0.48780   0.05480   0.65066   0.01267  Uiso   1.00
O4     O     0.37560   0.90280   0.72130   0.01267  Uiso   1.00
O5     O     0.79440   0.41760   0.72790   0.01267  Uiso   1.00
O6     O     0.92440   0.46320   0.80807   0.01267  Uiso   1.00
O7     O     0.86730   0.04450   0.73102   0.01267  Uiso   1.00
O8     O     0.94150   0.87130   0.79877   0.01267  Uiso   1.00
O9     O     0.58900   0.55030   0.15772   0.01267  Uiso   1.00
O10    O     0.70900   0.46650   0.23701   0.01267  Uiso   1.00
O11    O     0.51220   0.94520   0.15066   0.01267  Uiso   1.00
O12    O     0.62440   0.09720   0.22130   0.01267  Uiso   1.00
O13    O     0.20560   0.58240   0.22790   0.01267  Uiso   1.00
O14    O     0.07560   0.53680   0.30807   0.01267  Uiso   1.00
O15    O     0.13270   0.95550   0.23102   0.01267  Uiso   1.00
O16    O     0.05850   0.12870   0.29877   0.01267  Uiso   1.00
