data_WOBHIF_clean
_audit_creation_date              2014-07-02
_audit_creation_method            'Materials Studio'
_symmetry_space_group_name_H-M    'P1'
_symmetry_Int_Tables_number       1
_symmetry_cell_setting            triclinic
loop_
_symmetry_equiv_pos_as_xyz
  x,y,z
_cell_length_a                    6.6281
_cell_length_b                    15.0986
_cell_length_c                    15.0986
_cell_angle_alpha                 62.1031
_cell_angle_beta                  81.5858
_cell_angle_gamma                 98.4142
loop_
_atom_site_label
_atom_site_type_symbol
_atom_site_fract_x
_atom_site_fract_y
_atom_site_fract_z
_atom_site_U_iso_or_equiv
_atom_site_adp_type
_atom_site_occupancy
Zn1    Zn    0.29265   0.67602   0.73507   0.01267  Uiso   1.00
Zn2    Zn    0.02772   0.73507   0.58891   0.01267  Uiso   1.00
Zn3    Zn    0.61663   0.58891   0.67602   0.01267  Uiso   1.00
Zn4    Zn    0.70735   0.32398   0.26493   0.01267  Uiso   1.00
Zn5    Zn    0.97228   0.26493   0.41109   0.01267  Uiso   1.00
Zn6    Zn    0.38337   0.41109   0.32398   0.01267  Uiso   1.00
H1     H     0.14780   0.97440   0.55810   0.01267  Uiso   1.00
H2     H     0.70590   0.55810   0.46750   0.01267  Uiso   1.00
H3     H     0.17340   0.46750   0.97440   0.01267  Uiso   1.00
H4     H     0.85220   0.02560   0.44190   0.01267  Uiso   1.00
H5     H     0.29410   0.44190   0.53250   0.01267  Uiso   1.00
H6     H     0.82660   0.53250   0.02560   0.01267  Uiso   1.00
C1     C     0.29120   0.98370   0.53410   0.01267  Uiso   1.00
C2     C     0.58240   0.91560   0.53440   0.01267  Uiso   1.00
C3     C     0.37290   0.90050   0.56580   0.01267  Uiso   1.00
C4     C     0.69080   0.83360   0.55920   0.01267  Uiso   1.00
C5     C     0.82530   0.53410   0.48220   0.01267  Uiso   1.00
C6     C     0.11680   0.53440   0.55000   0.01267  Uiso   1.00
C7     C     0.93870   0.56580   0.53370   0.01267  Uiso   1.00
C8     C     0.25000   0.55920   0.60720   0.01267  Uiso   1.00
C9     C     0.30750   0.48220   0.98370   0.01267  Uiso   1.00
C10    C     0.66680   0.55000   0.91560   0.01267  Uiso   1.00
C11    C     0.47240   0.53370   0.90050   0.01267  Uiso   1.00
C12    C     0.85720   0.60720   0.83360   0.01267  Uiso   1.00
C13    C     0.70880   0.01630   0.46590   0.01267  Uiso   1.00
C14    C     0.41760   0.08440   0.46560   0.01267  Uiso   1.00
C15    C     0.62710   0.09950   0.43420   0.01267  Uiso   1.00
C16    C     0.30920   0.16640   0.44080   0.01267  Uiso   1.00
C17    C     0.17470   0.46590   0.51780   0.01267  Uiso   1.00
C18    C     0.88320   0.46560   0.45000   0.01267  Uiso   1.00
C19    C     0.06130   0.43420   0.46630   0.01267  Uiso   1.00
C20    C     0.75000   0.44080   0.39280   0.01267  Uiso   1.00
C21    C     0.69250   0.51780   0.01630   0.01267  Uiso   1.00
C22    C     0.33320   0.45000   0.08440   0.01267  Uiso   1.00
C23    C     0.52760   0.46630   0.09950   0.01267  Uiso   1.00
C24    C     0.14280   0.39280   0.16640   0.01267  Uiso   1.00
O1     O     0.23560   0.80490   0.63010   0.01267  Uiso   1.00
O2     O     0.88050   0.84650   0.52500   0.01267  Uiso   1.00
O3     O     0.58910   0.74200   0.63170   0.01267  Uiso   1.00
O4     O     0.86570   0.63010   0.56500   0.01267  Uiso   1.00
O5     O     0.40550   0.52500   0.62850   0.01267  Uiso   1.00
O6     O     0.22080   0.63170   0.62630   0.01267  Uiso   1.00
O7     O     0.43070   0.56500   0.80490   0.01267  Uiso   1.00
O8     O     0.03400   0.62850   0.84650   0.01267  Uiso   1.00
O9     O     0.84710   0.62630   0.74200   0.01267  Uiso   1.00
O10    O     0.76440   0.19510   0.36990   0.01267  Uiso   1.00
O11    O     0.11950   0.15350   0.47500   0.01267  Uiso   1.00
O12    O     0.41090   0.25800   0.36830   0.01267  Uiso   1.00
O13    O     0.13430   0.36990   0.43500   0.01267  Uiso   1.00
O14    O     0.59450   0.47500   0.37150   0.01267  Uiso   1.00
O15    O     0.77920   0.36830   0.37370   0.01267  Uiso   1.00
O16    O     0.56930   0.43500   0.19510   0.01267  Uiso   1.00
O17    O     0.96600   0.37150   0.15350   0.01267  Uiso   1.00
O18    O     0.15290   0.37370   0.25800   0.01267  Uiso   1.00
