data_WOBHIF01_clean
_audit_creation_date              2014-07-02
_audit_creation_method            'Materials Studio'
_symmetry_space_group_name_H-M    'P1'
_symmetry_Int_Tables_number       1
_symmetry_cell_setting            triclinic
loop_
_symmetry_equiv_pos_as_xyz
  x,y,z
_cell_length_a                    6.7059
_cell_length_b                    15.0915
_cell_length_c                    15.0915
_cell_angle_alpha                 62.1543
_cell_angle_beta                  81.4822
_cell_angle_gamma                 98.5178
loop_
_atom_site_label
_atom_site_type_symbol
_atom_site_fract_x
_atom_site_fract_y
_atom_site_fract_z
_atom_site_U_iso_or_equiv
_atom_site_adp_type
_atom_site_occupancy
Zn1    Zn    0.29039   0.67540   0.73523   0.01267  Uiso   1.00
Zn2    Zn    0.02562   0.73523   0.58937   0.01267  Uiso   1.00
Zn3    Zn    0.61499   0.58937   0.67540   0.01267  Uiso   1.00
Zn4    Zn    0.70961   0.32460   0.26477   0.01267  Uiso   1.00
Zn5    Zn    0.97438   0.26477   0.41063   0.01267  Uiso   1.00
Zn6    Zn    0.38501   0.41063   0.32460   0.01267  Uiso   1.00
H1     H     0.85310   0.02200   0.44490   0.01267  Uiso   1.00
H2     H     0.29800   0.44490   0.53310   0.01267  Uiso   1.00
H3     H     0.83110   0.53310   0.02200   0.01267  Uiso   1.00
H4     H     0.14690   0.97800   0.55510   0.01267  Uiso   1.00
H5     H     0.70200   0.55510   0.46690   0.01267  Uiso   1.00
H6     H     0.16890   0.46690   0.97800   0.01267  Uiso   1.00
C1     C     0.69140   0.83250   0.55930   0.01267  Uiso   1.00
C2     C     0.57680   0.91510   0.53270   0.01267  Uiso   1.00
C3     C     0.37100   0.90150   0.56650   0.01267  Uiso   1.00
C4     C     0.71110   0.01440   0.46610   0.01267  Uiso   1.00
C5     C     0.25070   0.55930   0.60820   0.01267  Uiso   1.00
C6     C     0.10950   0.53270   0.55220   0.01267  Uiso   1.00
C7     C     0.93750   0.56650   0.53200   0.01267  Uiso   1.00
C8     C     0.17720   0.46610   0.51950   0.01267  Uiso   1.00
C9     C     0.85890   0.60820   0.83250   0.01267  Uiso   1.00
C10    C     0.66170   0.55220   0.91510   0.01267  Uiso   1.00
C11    C     0.46950   0.53200   0.90150   0.01267  Uiso   1.00
C12    C     0.69670   0.51950   0.01440   0.01267  Uiso   1.00
C13    C     0.30860   0.16750   0.44070   0.01267  Uiso   1.00
C14    C     0.42320   0.08490   0.46730   0.01267  Uiso   1.00
C15    C     0.62900   0.09850   0.43350   0.01267  Uiso   1.00
C16    C     0.28890   0.98560   0.53390   0.01267  Uiso   1.00
C17    C     0.74930   0.44070   0.39180   0.01267  Uiso   1.00
C18    C     0.89050   0.46730   0.44780   0.01267  Uiso   1.00
C19    C     0.06250   0.43350   0.46800   0.01267  Uiso   1.00
C20    C     0.82280   0.53390   0.48050   0.01267  Uiso   1.00
C21    C     0.14110   0.39180   0.16750   0.01267  Uiso   1.00
C22    C     0.33830   0.44780   0.08490   0.01267  Uiso   1.00
C23    C     0.53050   0.46800   0.09850   0.01267  Uiso   1.00
C24    C     0.30330   0.48050   0.98560   0.01267  Uiso   1.00
O1     O     0.58420   0.73770   0.63310   0.01267  Uiso   1.00
O2     O     0.87960   0.84790   0.52610   0.01267  Uiso   1.00
O3     O     0.23960   0.80580   0.62770   0.01267  Uiso   1.00
O4     O     0.21730   0.63310   0.62920   0.01267  Uiso   1.00
O5     O     0.40570   0.52610   0.62600   0.01267  Uiso   1.00
O6     O     0.86730   0.62770   0.56650   0.01267  Uiso   1.00
O7     O     0.84650   0.62920   0.73770   0.01267  Uiso   1.00
O8     O     0.03170   0.62600   0.84790   0.01267  Uiso   1.00
O9     O     0.43380   0.56650   0.80580   0.01267  Uiso   1.00
O10    O     0.41580   0.26230   0.36690   0.01267  Uiso   1.00
O11    O     0.12040   0.15210   0.47390   0.01267  Uiso   1.00
O12    O     0.76040   0.19420   0.37230   0.01267  Uiso   1.00
O13    O     0.78270   0.36690   0.37080   0.01267  Uiso   1.00
O14    O     0.59430   0.47390   0.37400   0.01267  Uiso   1.00
O15    O     0.13270   0.37230   0.43350   0.01267  Uiso   1.00
O16    O     0.15350   0.37080   0.26230   0.01267  Uiso   1.00
O17    O     0.96830   0.37400   0.15210   0.01267  Uiso   1.00
O18    O     0.56620   0.43350   0.19420   0.01267  Uiso   1.00
