data_WOBHIF02_clean
_audit_creation_date              2014-07-02
_audit_creation_method            'Materials Studio'
_symmetry_space_group_name_H-M    'P1'
_symmetry_Int_Tables_number       1
_symmetry_cell_setting            triclinic
loop_
_symmetry_equiv_pos_as_xyz
  x,y,z
_cell_length_a                    6.8196
_cell_length_b                    15.1497
_cell_length_c                    15.1497
_cell_angle_alpha                 62.2103
_cell_angle_beta                  81.3702
_cell_angle_gamma                 98.6298
loop_
_atom_site_label
_atom_site_type_symbol
_atom_site_fract_x
_atom_site_fract_y
_atom_site_fract_z
_atom_site_U_iso_or_equiv
_atom_site_adp_type
_atom_site_occupancy
Zn1    Zn    0.61118   0.32908   0.40933   0.01267  Uiso   1.00
Zn2    Zn    0.02051   0.40933   0.26159   0.01267  Uiso   1.00
Zn3    Zn    0.28210   0.26159   0.32908   0.01267  Uiso   1.00
Zn4    Zn    0.38882   0.67092   0.59067   0.01267  Uiso   1.00
Zn5    Zn    0.97949   0.59067   0.73841   0.01267  Uiso   1.00
Zn6    Zn    0.71790   0.73841   0.67092   0.01267  Uiso   1.00
H1     H     0.30376   0.47006   0.55727   0.01267  Uiso   1.00
H2     H     0.86103   0.55727   0.97267   0.01267  Uiso   1.00
H3     H     0.83370   0.97267   0.47006   0.01267  Uiso   1.00
H4     H     0.69624   0.52994   0.44273   0.01267  Uiso   1.00
H5     H     0.13897   0.44273   0.02733   0.01267  Uiso   1.00
H6     H     0.16630   0.02733   0.52994   0.01267  Uiso   1.00
C1     C     0.24326   0.39794   0.43148   0.01267  Uiso   1.00
C2     C     0.12610   0.45354   0.46089   0.01267  Uiso   1.00
C3     C     0.94063   0.46669   0.43168   0.01267  Uiso   1.00
C4     C     0.17918   0.48182   0.53507   0.01267  Uiso   1.00
C5     C     0.67474   0.43148   0.17058   0.01267  Uiso   1.00
C6     C     0.58699   0.46089   0.08557   0.01267  Uiso   1.00
C7     C     0.37231   0.43168   0.10163   0.01267  Uiso   1.00
C8     C     0.71425   0.53507   0.98311   0.01267  Uiso   1.00
C9     C     0.84532   0.17058   0.39794   0.01267  Uiso   1.00
C10    C     0.67256   0.08557   0.45354   0.01267  Uiso   1.00
C11    C     0.47394   0.10163   0.46669   0.01267  Uiso   1.00
C12    C     0.69736   0.98311   0.48182   0.01267  Uiso   1.00
C13    C     0.75674   0.60206   0.56852   0.01267  Uiso   1.00
C14    C     0.87390   0.54646   0.53911   0.01267  Uiso   1.00
C15    C     0.05937   0.53331   0.56832   0.01267  Uiso   1.00
C16    C     0.82082   0.51818   0.46493   0.01267  Uiso   1.00
C17    C     0.32526   0.56852   0.82942   0.01267  Uiso   1.00
C18    C     0.41301   0.53911   0.91443   0.01267  Uiso   1.00
C19    C     0.62769   0.56832   0.89837   0.01267  Uiso   1.00
C20    C     0.28575   0.46493   0.01689   0.01267  Uiso   1.00
C21    C     0.15468   0.82942   0.60206   0.01267  Uiso   1.00
C22    C     0.32744   0.91443   0.54646   0.01267  Uiso   1.00
C23    C     0.52606   0.89837   0.53331   0.01267  Uiso   1.00
C24    C     0.30264   0.01689   0.51818   0.01267  Uiso   1.00
O1     O     0.38598   0.36957   0.47412   0.01267  Uiso   1.00
O2     O     0.18101   0.35945   0.37934   0.01267  Uiso   1.00
O3     O     0.88523   0.43616   0.36368   0.01267  Uiso   1.00
O4     O     0.86010   0.47412   0.15631   0.01267  Uiso   1.00
O5     O     0.56035   0.37934   0.26121   0.01267  Uiso   1.00
O6     O     0.24891   0.36368   0.20016   0.01267  Uiso   1.00
O7     O     0.01641   0.15631   0.36957   0.01267  Uiso   1.00
O8     O     0.82156   0.26121   0.35945   0.01267  Uiso   1.00
O9     O     0.44907   0.20016   0.43616   0.01267  Uiso   1.00
O10    O     0.61402   0.63043   0.52588   0.01267  Uiso   1.00
O11    O     0.81899   0.64055   0.62066   0.01267  Uiso   1.00
O12    O     0.11477   0.56384   0.63632   0.01267  Uiso   1.00
O13    O     0.13990   0.52588   0.84369   0.01267  Uiso   1.00
O14    O     0.43965   0.62066   0.73879   0.01267  Uiso   1.00
O15    O     0.75109   0.63632   0.79984   0.01267  Uiso   1.00
O16    O     0.98359   0.84369   0.63043   0.01267  Uiso   1.00
O17    O     0.17844   0.73879   0.64055   0.01267  Uiso   1.00
O18    O     0.55093   0.79984   0.56384   0.01267  Uiso   1.00
