data_WOCVUG_clean
_audit_creation_date              2014-07-02
_audit_creation_method            'Materials Studio'
_symmetry_space_group_name_H-M    'P1'
_symmetry_Int_Tables_number       1
_symmetry_cell_setting            triclinic
loop_
_symmetry_equiv_pos_as_xyz
  x,y,z
_cell_length_a                    9.1291
_cell_length_b                    12.5641
_cell_length_c                    12.5641
_cell_angle_alpha                 113.7510
_cell_angle_beta                  101.8140
_cell_angle_gamma                 78.1861
loop_
_atom_site_label
_atom_site_type_symbol
_atom_site_fract_x
_atom_site_fract_y
_atom_site_fract_z
_atom_site_U_iso_or_equiv
_atom_site_adp_type
_atom_site_occupancy
Cu1    Cu    0.18491   0.08262   0.48124   0.01267  Uiso   1.00
Cu2    Cu    0.33158   0.06735   0.67797   0.01267  Uiso   1.00
Cu3    Cu    0.81509   0.48124   0.08262   0.01267  Uiso   1.00
Cu4    Cu    0.66842   0.67797   0.06735   0.01267  Uiso   1.00
H1     H     0.98970   0.84300   0.62920   0.01267  Uiso   1.00
H2     H     0.77310   0.81200   0.48700   0.01267  Uiso   1.00
H3     H     0.80470   0.91150   0.44910   0.01267  Uiso   1.00
H4     H     0.00930   0.70160   0.42920   0.01267  Uiso   1.00
H5     H     0.03160   0.79920   0.38480   0.01267  Uiso   1.00
H6     H     0.88430   0.02740   0.76500   0.01267  Uiso   1.00
H7     H     0.77370   0.05290   0.65890   0.01267  Uiso   1.00
H8     H     0.75430   0.94710   0.69270   0.01267  Uiso   1.00
H9     H     0.53570   0.75230   0.36270   0.01267  Uiso   1.00
H10    H     0.49700   0.70590   0.45370   0.01267  Uiso   1.00
H11    H     0.25900   0.66840   0.34180   0.01267  Uiso   1.00
H12    H     0.29360   0.71820   0.25220   0.01267  Uiso   1.00
H13    H     0.32830   0.51090   0.16290   0.01267  Uiso   1.00
H14    H     0.49880   0.39480   0.25580   0.01267  Uiso   1.00
H15    H     0.53190   0.51070   0.36850   0.01267  Uiso   1.00
H16    H     0.36730   0.47080   0.33320   0.01267  Uiso   1.00
H17    H     0.09010   0.92130   0.22090   0.01267  Uiso   1.00
H18    H     0.88670   0.91040   0.08180   0.01267  Uiso   1.00
H19    H     0.73760   0.90250   0.93790   0.01267  Uiso   1.00
H20    H     0.55260   0.90240   0.77740   0.01267  Uiso   1.00
H21    H     0.44740   0.23990   0.91490   0.01267  Uiso   1.00
H22    H     0.60510   0.24940   0.08880   0.01267  Uiso   1.00
H23    H     0.75600   0.24750   0.24050   0.01267  Uiso   1.00
H24    H     0.93160   0.24770   0.39190   0.01267  Uiso   1.00
H25    H     0.01030   0.62920   0.84300   0.01267  Uiso   1.00
H26    H     0.22690   0.48700   0.81200   0.01267  Uiso   1.00
H27    H     0.19530   0.44910   0.91150   0.01267  Uiso   1.00
H28    H     0.99070   0.42920   0.70160   0.01267  Uiso   1.00
H29    H     0.96840   0.38480   0.79920   0.01267  Uiso   1.00
H30    H     0.11570   0.76500   0.02740   0.01267  Uiso   1.00
H31    H     0.22630   0.65890   0.05290   0.01267  Uiso   1.00
H32    H     0.24570   0.69270   0.94710   0.01267  Uiso   1.00
H33    H     0.46430   0.36270   0.75230   0.01267  Uiso   1.00
H34    H     0.50300   0.45370   0.70590   0.01267  Uiso   1.00
H35    H     0.74100   0.34180   0.66840   0.01267  Uiso   1.00
H36    H     0.70640   0.25220   0.71820   0.01267  Uiso   1.00
H37    H     0.67170   0.16290   0.51090   0.01267  Uiso   1.00
H38    H     0.50120   0.25580   0.39480   0.01267  Uiso   1.00
H39    H     0.46810   0.36850   0.51070   0.01267  Uiso   1.00
H40    H     0.63270   0.33320   0.47080   0.01267  Uiso   1.00
H41    H     0.90990   0.22090   0.92130   0.01267  Uiso   1.00
H42    H     0.11330   0.08180   0.91040   0.01267  Uiso   1.00
H43    H     0.26240   0.93790   0.90250   0.01267  Uiso   1.00
H44    H     0.44740   0.77740   0.90240   0.01267  Uiso   1.00
H45    H     0.55260   0.91490   0.23990   0.01267  Uiso   1.00
H46    H     0.39490   0.08880   0.24940   0.01267  Uiso   1.00
H47    H     0.24400   0.24050   0.24750   0.01267  Uiso   1.00
H48    H     0.06840   0.39190   0.24770   0.01267  Uiso   1.00
C1     C     0.05960   0.97419   0.60101   0.01267  Uiso   1.00
C2     C     0.93910   0.90640   0.60000   0.01267  Uiso   1.00
C3     C     0.85360   0.85012   0.48028   0.01267  Uiso   1.00
C4     C     0.95510   0.75960   0.39500   0.01267  Uiso   1.00
C5     C     0.87190   0.69600   0.27660   0.01267  Uiso   1.00
C6     C     0.82740   0.99140   0.68740   0.01267  Uiso   1.00
C7     C     0.38280   0.86884   0.46836   0.01267  Uiso   1.00
C8     C     0.45270   0.74690   0.39930   0.01267  Uiso   1.00
C9     C     0.34030   0.67520   0.30440   0.01267  Uiso   1.00
C10    C     0.40980   0.54713   0.22647   0.01267  Uiso   1.00
C11    C     0.53750   0.55215   0.16825   0.01267  Uiso   1.00
C12    C     0.45600   0.47440   0.30280   0.01267  Uiso   1.00
C13    C     0.01680   0.98870   0.22870   0.01267  Uiso   1.00
C14    C     0.90310   0.98430   0.14190   0.01267  Uiso   1.00
C15    C     0.81010   0.08134   0.13626   0.01267  Uiso   1.00
C16    C     0.69670   0.07766   0.03254   0.01267  Uiso   1.00
C17    C     0.67720   0.97374   0.93806   0.01267  Uiso   1.00
C18    C     0.56640   0.97470   0.84130   0.01267  Uiso   1.00
C19    C     0.50190   0.16930   0.92150   0.01267  Uiso   1.00
C20    C     0.60210   0.17630   0.02430   0.01267  Uiso   1.00
C21    C     0.82360   0.17760   0.23500   0.01267  Uiso   1.00
C22    C     0.92860   0.17720   0.32420   0.01267  Uiso   1.00
C23    C     0.94040   0.60101   0.97419   0.01267  Uiso   1.00
C24    C     0.06090   0.60000   0.90640   0.01267  Uiso   1.00
C25    C     0.14640   0.48028   0.85012   0.01267  Uiso   1.00
C26    C     0.04490   0.39500   0.75960   0.01267  Uiso   1.00
C27    C     0.12810   0.27660   0.69600   0.01267  Uiso   1.00
C28    C     0.17260   0.68740   0.99140   0.01267  Uiso   1.00
C29    C     0.61720   0.46836   0.86884   0.01267  Uiso   1.00
C30    C     0.54730   0.39930   0.74690   0.01267  Uiso   1.00
C31    C     0.65970   0.30440   0.67520   0.01267  Uiso   1.00
C32    C     0.59020   0.22647   0.54713   0.01267  Uiso   1.00
C33    C     0.46250   0.16825   0.55215   0.01267  Uiso   1.00
C34    C     0.54400   0.30280   0.47440   0.01267  Uiso   1.00
C35    C     0.98320   0.22870   0.98870   0.01267  Uiso   1.00
C36    C     0.09690   0.14190   0.98430   0.01267  Uiso   1.00
C37    C     0.18990   0.13626   0.08134   0.01267  Uiso   1.00
C38    C     0.30330   0.03254   0.07766   0.01267  Uiso   1.00
C39    C     0.32280   0.93806   0.97374   0.01267  Uiso   1.00
C40    C     0.43360   0.84130   0.97470   0.01267  Uiso   1.00
C41    C     0.49810   0.92150   0.16930   0.01267  Uiso   1.00
C42    C     0.39790   0.02430   0.17630   0.01267  Uiso   1.00
C43    C     0.17640   0.23500   0.17760   0.01267  Uiso   1.00
C44    C     0.07140   0.32420   0.17720   0.01267  Uiso   1.00
N1     N     0.03070   0.08568   0.32672   0.01267  Uiso   1.00
N2     N     0.48070   0.07180   0.83600   0.01267  Uiso   1.00
N3     N     0.96930   0.32672   0.08568   0.01267  Uiso   1.00
N4     N     0.51930   0.83600   0.07180   0.01267  Uiso   1.00
O1     O     0.17100   0.98405   0.67995   0.01267  Uiso   1.00
O2     O     0.03790   0.01799   0.52401   0.01267  Uiso   1.00
O3     O     0.78740   0.75300   0.22080   0.01267  Uiso   1.00
O4     O     0.89280   0.58390   0.24106   0.01267  Uiso   1.00
O5     O     0.28910   0.92075   0.41305   0.01267  Uiso   1.00
O6     O     0.42360   0.91239   0.57551   0.01267  Uiso   1.00
O7     O     0.64360   0.46792   0.14768   0.01267  Uiso   1.00
O8     O     0.52990   0.64128   0.14492   0.01267  Uiso   1.00
O9     O     0.82900   0.67995   0.98405   0.01267  Uiso   1.00
O10    O     0.96210   0.52401   0.01799   0.01267  Uiso   1.00
O11    O     0.21260   0.22080   0.75300   0.01267  Uiso   1.00
O12    O     0.10720   0.24106   0.58390   0.01267  Uiso   1.00
O13    O     0.71090   0.41305   0.92075   0.01267  Uiso   1.00
O14    O     0.57640   0.57551   0.91239   0.01267  Uiso   1.00
O15    O     0.35640   0.14768   0.46792   0.01267  Uiso   1.00
O16    O     0.47010   0.14492   0.64128   0.01267  Uiso   1.00
