data_WOCVUG01_clean
_audit_creation_date              2014-07-02
_audit_creation_method            'Materials Studio'
_symmetry_space_group_name_H-M    'P1'
_symmetry_Int_Tables_number       1
_symmetry_cell_setting            triclinic
loop_
_symmetry_equiv_pos_as_xyz
  x,y,z
_cell_length_a                    9.1183
_cell_length_b                    12.5298
_cell_length_c                    12.5298
_cell_angle_alpha                 113.7200
_cell_angle_beta                  101.6020
_cell_angle_gamma                 78.3982
loop_
_atom_site_label
_atom_site_type_symbol
_atom_site_fract_x
_atom_site_fract_y
_atom_site_fract_z
_atom_site_U_iso_or_equiv
_atom_site_adp_type
_atom_site_occupancy
Cu1    Cu    0.68328   0.77287   0.17371   0.01267  Uiso   1.00
Cu2    Cu    0.82909   0.76125   0.37151   0.01267  Uiso   1.00
Cu3    Cu    0.31672   0.17371   0.77287   0.01267  Uiso   1.00
Cu4    Cu    0.17091   0.37151   0.76125   0.01267  Uiso   1.00
H1     H     0.44620   0.94070   0.08270   0.01267  Uiso   1.00
H2     H     0.26320   0.94200   0.92740   0.01267  Uiso   1.00
H3     H     0.39740   0.60020   0.76560   0.01267  Uiso   1.00
H4     H     0.57890   0.60820   0.92460   0.01267  Uiso   1.00
H5     H     0.94620   0.93390   0.61470   0.01267  Uiso   1.00
H6     H     0.12430   0.94370   0.77670   0.01267  Uiso   1.00
H7     H     0.23290   0.59260   0.62780   0.01267  Uiso   1.00
H8     H     0.05260   0.59340   0.47000   0.01267  Uiso   1.00
H9     H     0.48220   0.53910   0.32950   0.01267  Uiso   1.00
H10    H     0.27070   0.50130   0.18010   0.01267  Uiso   1.00
H11    H     0.30180   0.60120   0.14160   0.01267  Uiso   1.00
H12    H     0.51100   0.39190   0.12450   0.01267  Uiso   1.00
H13    H     0.53350   0.48990   0.07990   0.01267  Uiso   1.00
H14    H     0.37450   0.72410   0.45770   0.01267  Uiso   1.00
H15    H     0.27150   0.74780   0.34780   0.01267  Uiso   1.00
H16    H     0.24420   0.64450   0.38290   0.01267  Uiso   1.00
H17    H     0.16430   0.85950   0.20230   0.01267  Uiso   1.00
H18    H     0.23740   0.03450   0.35250   0.01267  Uiso   1.00
H19    H     0.20280   0.94590   0.40410   0.01267  Uiso   1.00
H20    H     0.00660   0.15180   0.39680   0.01267  Uiso   1.00
H21    H     0.96180   0.06040   0.44040   0.01267  Uiso   1.00
H22    H     0.12540   0.02720   0.16140   0.01267  Uiso   1.00
H23    H     0.00600   0.93930   0.08110   0.01267  Uiso   1.00
H24    H     0.95570   0.05390   0.19070   0.01267  Uiso   1.00
H25    H     0.55380   0.08270   0.94070   0.01267  Uiso   1.00
H26    H     0.73680   0.92740   0.94200   0.01267  Uiso   1.00
H27    H     0.60260   0.76560   0.60020   0.01267  Uiso   1.00
H28    H     0.42110   0.92460   0.60820   0.01267  Uiso   1.00
H29    H     0.05380   0.61470   0.93390   0.01267  Uiso   1.00
H30    H     0.87570   0.77670   0.94370   0.01267  Uiso   1.00
H31    H     0.76710   0.62780   0.59260   0.01267  Uiso   1.00
H32    H     0.94740   0.47000   0.59340   0.01267  Uiso   1.00
H33    H     0.51780   0.32950   0.53910   0.01267  Uiso   1.00
H34    H     0.72930   0.18010   0.50130   0.01267  Uiso   1.00
H35    H     0.69820   0.14160   0.60120   0.01267  Uiso   1.00
H36    H     0.48900   0.12450   0.39190   0.01267  Uiso   1.00
H37    H     0.46650   0.07990   0.48990   0.01267  Uiso   1.00
H38    H     0.62550   0.45770   0.72410   0.01267  Uiso   1.00
H39    H     0.72850   0.34780   0.74780   0.01267  Uiso   1.00
H40    H     0.75580   0.38290   0.64450   0.01267  Uiso   1.00
H41    H     0.83570   0.20230   0.85950   0.01267  Uiso   1.00
H42    H     0.76260   0.35250   0.03450   0.01267  Uiso   1.00
H43    H     0.79720   0.40410   0.94590   0.01267  Uiso   1.00
H44    H     0.99340   0.39680   0.15180   0.01267  Uiso   1.00
H45    H     0.03820   0.44040   0.06040   0.01267  Uiso   1.00
H46    H     0.87460   0.16140   0.02720   0.01267  Uiso   1.00
H47    H     0.99400   0.08110   0.93930   0.01267  Uiso   1.00
H48    H     0.04430   0.19070   0.05390   0.01267  Uiso   1.00
C1     C     0.43680   0.86910   0.01650   0.01267  Uiso   1.00
C2     C     0.32700   0.87090   0.92370   0.01267  Uiso   1.00
C3     C     0.31030   0.77089   0.82711   0.01267  Uiso   1.00
C4     C     0.40550   0.67300   0.83040   0.01267  Uiso   1.00
C5     C     0.51340   0.67800   0.92620   0.01267  Uiso   1.00
C6     C     0.00430   0.86299   0.61781   0.01267  Uiso   1.00
C7     C     0.11060   0.86960   0.71520   0.01267  Uiso   1.00
C8     C     0.19650   0.76871   0.72309   0.01267  Uiso   1.00
C9     C     0.17410   0.66446   0.62814   0.01267  Uiso   1.00
C10    C     0.06580   0.66580   0.53420   0.01267  Uiso   1.00
C11    C     0.55560   0.66812   0.29648   0.01267  Uiso   1.00
C12    C     0.43340   0.60077   0.29723   0.01267  Uiso   1.00
C13    C     0.35090   0.54066   0.17414   0.01267  Uiso   1.00
C14    C     0.45710   0.44948   0.08952   0.01267  Uiso   1.00
C15    C     0.37510   0.38497   0.97063   0.01267  Uiso   1.00
C16    C     0.32070   0.68700   0.37880   0.01267  Uiso   1.00
C17    C     0.95820   0.86347   0.24513   0.01267  Uiso   1.00
C18    C     0.08330   0.92375   0.23825   0.01267  Uiso   1.00
C19    C     0.15580   0.99860   0.36160   0.01267  Uiso   1.00
C20    C     0.04750   0.09537   0.43603   0.01267  Uiso   1.00
C21    C     0.11950   0.16218   0.56082   0.01267  Uiso   1.00
C22    C     0.03890   0.99178   0.16142   0.01267  Uiso   1.00
C23    C     0.56320   0.01650   0.86910   0.01267  Uiso   1.00
C24    C     0.67300   0.92370   0.87090   0.01267  Uiso   1.00
C25    C     0.68970   0.82711   0.77089   0.01267  Uiso   1.00
C26    C     0.59450   0.83040   0.67300   0.01267  Uiso   1.00
C27    C     0.48660   0.92620   0.67800   0.01267  Uiso   1.00
C28    C     0.99570   0.61781   0.86299   0.01267  Uiso   1.00
C29    C     0.88940   0.71520   0.86960   0.01267  Uiso   1.00
C30    C     0.80350   0.72309   0.76871   0.01267  Uiso   1.00
C31    C     0.82590   0.62814   0.66446   0.01267  Uiso   1.00
C32    C     0.93420   0.53420   0.66580   0.01267  Uiso   1.00
C33    C     0.44440   0.29648   0.66812   0.01267  Uiso   1.00
C34    C     0.56660   0.29723   0.60077   0.01267  Uiso   1.00
C35    C     0.64910   0.17414   0.54066   0.01267  Uiso   1.00
C36    C     0.54290   0.08952   0.44948   0.01267  Uiso   1.00
C37    C     0.62490   0.97063   0.38497   0.01267  Uiso   1.00
C38    C     0.67930   0.37880   0.68700   0.01267  Uiso   1.00
C39    C     0.04180   0.24513   0.86347   0.01267  Uiso   1.00
C40    C     0.91670   0.23825   0.92375   0.01267  Uiso   1.00
C41    C     0.84420   0.36160   0.99860   0.01267  Uiso   1.00
C42    C     0.95250   0.43603   0.09537   0.01267  Uiso   1.00
C43    C     0.88050   0.56082   0.16218   0.01267  Uiso   1.00
C44    C     0.96110   0.16142   0.99178   0.01267  Uiso   1.00
N1     N     0.52960   0.77476   0.01924   0.01267  Uiso   1.00
N2     N     0.97880   0.76274   0.52826   0.01267  Uiso   1.00
N3     N     0.47040   0.01924   0.77476   0.01267  Uiso   1.00
N4     N     0.02120   0.52826   0.76274   0.01267  Uiso   1.00
O1     O     0.53340   0.70976   0.21844   0.01267  Uiso   1.00
O2     O     0.66780   0.67820   0.37540   0.01267  Uiso   1.00
O3     O     0.39580   0.27373   0.93327   0.01267  Uiso   1.00
O4     O     0.29140   0.44432   0.91508   0.01267  Uiso   1.00
O5     O     0.85530   0.83642   0.15750   0.01267  Uiso   1.00
O6     O     0.96730   0.84177   0.33591   0.01267  Uiso   1.00
O7     O     0.21530   0.10247   0.60953   0.01267  Uiso   1.00
O8     O     0.07550   0.27009   0.60691   0.01267  Uiso   1.00
O9     O     0.46660   0.21844   0.70976   0.01267  Uiso   1.00
O10    O     0.33220   0.37540   0.67820   0.01267  Uiso   1.00
O11    O     0.60420   0.93327   0.27373   0.01267  Uiso   1.00
O12    O     0.70860   0.91508   0.44432   0.01267  Uiso   1.00
O13    O     0.14470   0.15750   0.83642   0.01267  Uiso   1.00
O14    O     0.03270   0.33591   0.84177   0.01267  Uiso   1.00
O15    O     0.78470   0.60953   0.10247   0.01267  Uiso   1.00
O16    O     0.92450   0.60691   0.27009   0.01267  Uiso   1.00
