data_WOHBOL_clean
_audit_creation_date              2014-07-02
_audit_creation_method            'Materials Studio'
_symmetry_space_group_name_H-M    'P1'
_symmetry_Int_Tables_number       1
_symmetry_cell_setting            triclinic
loop_
_symmetry_equiv_pos_as_xyz
  x,y,z
_cell_length_a                    8.5510
_cell_length_b                    13.1570
_cell_length_c                    14.0423
_cell_angle_alpha                 117.9360
_cell_angle_beta                  91.1158
_cell_angle_gamma                 90.0000
loop_
_atom_site_label
_atom_site_type_symbol
_atom_site_fract_x
_atom_site_fract_y
_atom_site_fract_z
_atom_site_U_iso_or_equiv
_atom_site_adp_type
_atom_site_occupancy
Cu1    Cu    0.55373   0.08953   0.58738   0.01267  Uiso   1.00
Cu2    Cu    0.94627   0.50215   0.41262   0.01267  Uiso   1.00
Cu3    Cu    0.44627   0.91047   0.41262   0.01267  Uiso   1.00
Cu4    Cu    0.05373   0.49785   0.58738   0.01267  Uiso   1.00
H1     H     0.65900   0.33930   0.65920   0.01267  Uiso   1.00
H2     H     0.81530   0.48500   0.78580   0.01267  Uiso   1.00
H3     H     0.89460   0.28600   0.93100   0.01267  Uiso   1.00
H4     H     0.73260   0.14720   0.80180   0.01267  Uiso   1.00
H5     H     0.98070   0.56460   0.94700   0.01267  Uiso   1.00
H6     H     0.09980   0.07130   0.72360   0.01267  Uiso   1.00
H7     H     0.00850   0.08230   0.62820   0.01267  Uiso   1.00
H8     H     0.91150   0.92080   0.64460   0.01267  Uiso   1.00
H9     H     0.98880   0.87910   0.52820   0.01267  Uiso   1.00
H10    H     0.13490   0.87010   0.71100   0.01267  Uiso   1.00
H11    H     0.22520   0.84050   0.60160   0.01267  Uiso   1.00
H12    H     0.84100   0.68010   0.34080   0.01267  Uiso   1.00
H13    H     0.68470   0.69920   0.21420   0.01267  Uiso   1.00
H14    H     0.60540   0.35500   0.06900   0.01267  Uiso   1.00
H15    H     0.76740   0.34540   0.19820   0.01267  Uiso   1.00
H16    H     0.51930   0.61760   0.05300   0.01267  Uiso   1.00
H17    H     0.40020   0.34770   0.27640   0.01267  Uiso   1.00
H18    H     0.49150   0.45410   0.37180   0.01267  Uiso   1.00
H19    H     0.58850   0.27620   0.35540   0.01267  Uiso   1.00
H20    H     0.51120   0.35090   0.47180   0.01267  Uiso   1.00
H21    H     0.36510   0.15910   0.28900   0.01267  Uiso   1.00
H22    H     0.27480   0.23890   0.39840   0.01267  Uiso   1.00
H23    H     0.34100   0.66070   0.34080   0.01267  Uiso   1.00
H24    H     0.18470   0.51500   0.21420   0.01267  Uiso   1.00
H25    H     0.10540   0.71400   0.06900   0.01267  Uiso   1.00
H26    H     0.26740   0.85280   0.19820   0.01267  Uiso   1.00
H27    H     0.01930   0.43540   0.05300   0.01267  Uiso   1.00
H28    H     0.90020   0.92870   0.27640   0.01267  Uiso   1.00
H29    H     0.99150   0.91770   0.37180   0.01267  Uiso   1.00
H30    H     0.08850   0.07920   0.35540   0.01267  Uiso   1.00
H31    H     0.01120   0.12090   0.47180   0.01267  Uiso   1.00
H32    H     0.86510   0.12990   0.28900   0.01267  Uiso   1.00
H33    H     0.77480   0.15950   0.39840   0.01267  Uiso   1.00
H34    H     0.15900   0.31990   0.65920   0.01267  Uiso   1.00
H35    H     0.31530   0.30080   0.78580   0.01267  Uiso   1.00
H36    H     0.39460   0.64500   0.93100   0.01267  Uiso   1.00
H37    H     0.23260   0.65460   0.80180   0.01267  Uiso   1.00
H38    H     0.48070   0.38240   0.94700   0.01267  Uiso   1.00
H39    H     0.59980   0.65230   0.72360   0.01267  Uiso   1.00
H40    H     0.50850   0.54590   0.62820   0.01267  Uiso   1.00
H41    H     0.41150   0.72380   0.64460   0.01267  Uiso   1.00
H42    H     0.48880   0.64910   0.52820   0.01267  Uiso   1.00
H43    H     0.63490   0.84090   0.71100   0.01267  Uiso   1.00
H44    H     0.72520   0.76110   0.60160   0.01267  Uiso   1.00
C1     C     0.70820   0.32840   0.71496   0.01267  Uiso   1.00
C2     C     0.80290   0.41523   0.78958   0.01267  Uiso   1.00
C3     C     0.87160   0.40309   0.87482   0.01267  Uiso   1.00
C4     C     0.84380   0.30001   0.87750   0.01267  Uiso   1.00
C5     C     0.74680   0.21789   0.79986   0.01267  Uiso   1.00
C6     C     0.96950   0.49744   0.95554   0.01267  Uiso   1.00
C7     C     0.23760   0.03035   0.59046   0.01267  Uiso   1.00
C8     C     0.08320   0.03446   0.64420   0.01267  Uiso   1.00
C9     C     0.01160   0.91448   0.60688   0.01267  Uiso   1.00
C10    C     0.12140   0.83785   0.63170   0.01267  Uiso   1.00
C11    C     0.07080   0.71215   0.58372   0.01267  Uiso   1.00
C12    C     0.79180   0.61344   0.28504   0.01267  Uiso   1.00
C13    C     0.69710   0.62565   0.21042   0.01267  Uiso   1.00
C14    C     0.62840   0.52827   0.12518   0.01267  Uiso   1.00
C15    C     0.65620   0.42251   0.12250   0.01267  Uiso   1.00
C16    C     0.75320   0.41803   0.20014   0.01267  Uiso   1.00
C17    C     0.53050   0.54190   0.04446   0.01267  Uiso   1.00
C18    C     0.26240   0.43989   0.40954   0.01267  Uiso   1.00
C19    C     0.41680   0.39026   0.35580   0.01267  Uiso   1.00
C20    C     0.48840   0.30760   0.39312   0.01267  Uiso   1.00
C21    C     0.37860   0.20615   0.36830   0.01267  Uiso   1.00
C22    C     0.42920   0.12843   0.41628   0.01267  Uiso   1.00
C23    C     0.29180   0.67160   0.28504   0.01267  Uiso   1.00
C24    C     0.19710   0.58477   0.21042   0.01267  Uiso   1.00
C25    C     0.12840   0.59691   0.12518   0.01267  Uiso   1.00
C26    C     0.15620   0.69999   0.12250   0.01267  Uiso   1.00
C27    C     0.25320   0.78211   0.20014   0.01267  Uiso   1.00
C28    C     0.03050   0.50256   0.04446   0.01267  Uiso   1.00
C29    C     0.76240   0.96965   0.40954   0.01267  Uiso   1.00
C30    C     0.91680   0.96554   0.35580   0.01267  Uiso   1.00
C31    C     0.98840   0.08552   0.39312   0.01267  Uiso   1.00
C32    C     0.87860   0.16215   0.36830   0.01267  Uiso   1.00
C33    C     0.92920   0.28785   0.41628   0.01267  Uiso   1.00
C34    C     0.20820   0.38656   0.71496   0.01267  Uiso   1.00
C35    C     0.30290   0.37435   0.78958   0.01267  Uiso   1.00
C36    C     0.37160   0.47173   0.87482   0.01267  Uiso   1.00
C37    C     0.34380   0.57749   0.87750   0.01267  Uiso   1.00
C38    C     0.24680   0.58197   0.79986   0.01267  Uiso   1.00
C39    C     0.46950   0.45810   0.95554   0.01267  Uiso   1.00
C40    C     0.73760   0.56011   0.59046   0.01267  Uiso   1.00
C41    C     0.58320   0.60974   0.64420   0.01267  Uiso   1.00
C42    C     0.51160   0.69240   0.60688   0.01267  Uiso   1.00
C43    C     0.62140   0.79385   0.63170   0.01267  Uiso   1.00
C44    C     0.57080   0.87157   0.58372   0.01267  Uiso   1.00
N1     N     0.67760   0.23085   0.71962   0.01267  Uiso   1.00
N2     N     0.82240   0.51123   0.28038   0.01267  Uiso   1.00
N3     N     0.32240   0.76915   0.28038   0.01267  Uiso   1.00
N4     N     0.17760   0.48877   0.71962   0.01267  Uiso   1.00
O1     O     0.34157   0.10336   0.64536   0.01267  Uiso   1.00
O2     O     0.25119   0.95306   0.49458   0.01267  Uiso   1.00
O3     O     0.09880   0.66260   0.63940   0.01267  Uiso   1.00
O4     O     0.00930   0.66636   0.49060   0.01267  Uiso   1.00
O5     O     0.15843   0.45800   0.35464   0.01267  Uiso   1.00
O6     O     0.24881   0.45848   0.50542   0.01267  Uiso   1.00
O7     O     0.40120   0.02320   0.36060   0.01267  Uiso   1.00
O8     O     0.49070   0.17576   0.50940   0.01267  Uiso   1.00
O9     O     0.65843   0.89664   0.35464   0.01267  Uiso   1.00
O10    O     0.74881   0.04694   0.50542   0.01267  Uiso   1.00
O11    O     0.90120   0.33740   0.36060   0.01267  Uiso   1.00
O12    O     0.99070   0.33364   0.50940   0.01267  Uiso   1.00
O13    O     0.84157   0.54200   0.64536   0.01267  Uiso   1.00
O14    O     0.75119   0.54152   0.49458   0.01267  Uiso   1.00
O15    O     0.59880   0.97680   0.63940   0.01267  Uiso   1.00
O16    O     0.50930   0.82424   0.49060   0.01267  Uiso   1.00
