data_WONZOP_clean
_audit_creation_date              2014-07-02
_audit_creation_method            'Materials Studio'
_symmetry_space_group_name_H-M    'P1'
_symmetry_Int_Tables_number       1
_symmetry_cell_setting            triclinic
loop_
_symmetry_equiv_pos_as_xyz
  x,y,z
_cell_length_a                    15.0666
_cell_length_b                    15.7706
_cell_length_c                    15.7706
_cell_angle_alpha                 76.8103
_cell_angle_beta                  61.4661
_cell_angle_gamma                 61.4661
loop_
_atom_site_label
_atom_site_type_symbol
_atom_site_fract_x
_atom_site_fract_y
_atom_site_fract_z
_atom_site_U_iso_or_equiv
_atom_site_adp_type
_atom_site_occupancy
Zn1    Zn    0.25000   0.00000   0.00000   0.01267  Uiso   1.00
Zn2    Zn    0.75000   1.00000   0.00000   0.01267  Uiso   1.00
Si1    Si    0.00000   0.00000   0.00000   0.01267  Uiso   1.00
Si2    Si    0.50000   0.00000   0.00000   0.01267  Uiso   1.00
H1     H     0.23760   0.16790   0.07690   0.01267  Uiso   1.00
H2     H     0.15480   0.33550   0.07950   0.01267  Uiso   1.00
H3     H     0.48240   0.83210   0.92310   0.01267  Uiso   1.00
H4     H     0.56980   0.66450   0.92050   0.01267  Uiso   1.00
H5     H     0.31450   0.92310   0.16790   0.01267  Uiso   1.00
H6     H     0.23430   0.92050   0.33550   0.01267  Uiso   1.00
H7     H     0.40550   0.07690   0.83210   0.01267  Uiso   1.00
H8     H     0.49030   0.07950   0.66450   0.01267  Uiso   1.00
H9     H     0.01760   0.07690   0.16790   0.01267  Uiso   1.00
H10    H     0.93020   0.07950   0.33550   0.01267  Uiso   1.00
H11    H     0.26240   0.92310   0.83210   0.01267  Uiso   1.00
H12    H     0.34520   0.92050   0.66450   0.01267  Uiso   1.00
H13    H     0.09450   0.16790   0.92310   0.01267  Uiso   1.00
H14    H     0.00970   0.33550   0.92050   0.01267  Uiso   1.00
H15    H     0.18550   0.83210   0.07690   0.01267  Uiso   1.00
H16    H     0.26570   0.66450   0.07950   0.01267  Uiso   1.00
H17    H     0.76240   0.83210   0.92310   0.01267  Uiso   1.00
H18    H     0.84520   0.66450   0.92050   0.01267  Uiso   1.00
H19    H     0.51760   0.16790   0.07690   0.01267  Uiso   1.00
H20    H     0.43020   0.33550   0.07950   0.01267  Uiso   1.00
H21    H     0.68550   0.07690   0.83210   0.01267  Uiso   1.00
H22    H     0.76570   0.07950   0.66450   0.01267  Uiso   1.00
H23    H     0.59450   0.92310   0.16790   0.01267  Uiso   1.00
H24    H     0.50970   0.92050   0.33550   0.01267  Uiso   1.00
H25    H     0.98240   0.92310   0.83210   0.01267  Uiso   1.00
H26    H     0.06980   0.92050   0.66450   0.01267  Uiso   1.00
H27    H     0.73760   0.07690   0.16790   0.01267  Uiso   1.00
H28    H     0.65480   0.07950   0.33550   0.01267  Uiso   1.00
H29    H     0.90550   0.83210   0.07690   0.01267  Uiso   1.00
H30    H     0.99030   0.66450   0.07950   0.01267  Uiso   1.00
H31    H     0.81450   0.16790   0.92310   0.01267  Uiso   1.00
H32    H     0.73430   0.33550   0.92050   0.01267  Uiso   1.00
C1     C     0.19040   0.20260   0.04500   0.01267  Uiso   1.00
C2     C     0.14160   0.30240   0.04660   0.01267  Uiso   1.00
C3     C     0.43800   0.79740   0.95500   0.01267  Uiso   1.00
C4     C     0.49060   0.69760   0.95340   0.01267  Uiso   1.00
C5     C     0.23540   0.95500   0.20260   0.01267  Uiso   1.00
C6     C     0.18820   0.95340   0.30240   0.01267  Uiso   1.00
C7     C     0.39300   0.04500   0.79740   0.01267  Uiso   1.00
C8     C     0.44400   0.04660   0.69760   0.01267  Uiso   1.00
C9     C     0.06200   0.04500   0.20260   0.01267  Uiso   1.00
C10    C     0.00940   0.04660   0.30240   0.01267  Uiso   1.00
C11    C     0.30960   0.95500   0.79740   0.01267  Uiso   1.00
C12    C     0.35840   0.95340   0.69760   0.01267  Uiso   1.00
C13    C     0.10700   0.20260   0.95500   0.01267  Uiso   1.00
C14    C     0.05600   0.30240   0.95340   0.01267  Uiso   1.00
C15    C     0.26460   0.79740   0.04500   0.01267  Uiso   1.00
C16    C     0.31180   0.69760   0.04660   0.01267  Uiso   1.00
C17    C     0.80960   0.79740   0.95500   0.01267  Uiso   1.00
C18    C     0.85840   0.69760   0.95340   0.01267  Uiso   1.00
C19    C     0.56200   0.20260   0.04500   0.01267  Uiso   1.00
C20    C     0.50940   0.30240   0.04660   0.01267  Uiso   1.00
C21    C     0.76460   0.04500   0.79740   0.01267  Uiso   1.00
C22    C     0.81180   0.04660   0.69760   0.01267  Uiso   1.00
C23    C     0.60700   0.95500   0.20260   0.01267  Uiso   1.00
C24    C     0.55600   0.95340   0.30240   0.01267  Uiso   1.00
C25    C     0.93800   0.95500   0.79740   0.01267  Uiso   1.00
C26    C     0.99060   0.95340   0.69760   0.01267  Uiso   1.00
C27    C     0.69040   0.04500   0.20260   0.01267  Uiso   1.00
C28    C     0.64160   0.04660   0.30240   0.01267  Uiso   1.00
C29    C     0.89300   0.79740   0.04500   0.01267  Uiso   1.00
C30    C     0.94400   0.69760   0.04660   0.01267  Uiso   1.00
C31    C     0.73540   0.20260   0.95500   0.01267  Uiso   1.00
C32    C     0.68820   0.30240   0.95340   0.01267  Uiso   1.00
C33    C     0.07330   0.35340   0.00000   0.01267  Uiso   1.00
C34    C     0.02090   0.45820   0.00000   0.01267  Uiso   1.00
C35    C     0.42670   0.64660   0.00000   0.01267  Uiso   1.00
C36    C     0.47910   0.54180   0.00000   0.01267  Uiso   1.00
C37    C     0.07330  -0.00000   0.35340   0.01267  Uiso   1.00
C38    C     0.02090  -0.00000   0.45820   0.01267  Uiso   1.00
C39    C     0.42670  -0.00000   0.64660   0.01267  Uiso   1.00
C40    C     0.47910   0.00000   0.54180   0.01267  Uiso   1.00
C41    C     0.92670   0.64660   0.00000   0.01267  Uiso   1.00
C42    C     0.97910   0.54180   0.00000   0.01267  Uiso   1.00
C43    C     0.57330   0.35340   0.00000   0.01267  Uiso   1.00
C44    C     0.52090   0.45820   0.00000   0.01267  Uiso   1.00
C45    C     0.92670  -0.00000   0.64660   0.01267  Uiso   1.00
C46    C     0.97910   1.00000   0.54180   0.01267  Uiso   1.00
C47    C     0.57330  -0.00000   0.35340   0.01267  Uiso   1.00
C48    C     0.52090   0.00000   0.45820   0.01267  Uiso   1.00
N1     N     0.17330   0.15340   0.00000   0.01267  Uiso   1.00
N2     N     0.32670   0.84660   0.00000   0.01267  Uiso   1.00
N3     N     0.17330   0.00000   0.15340   0.01267  Uiso   1.00
N4     N     0.32670  -0.00000   0.84660   0.01267  Uiso   1.00
N5     N     0.82670   0.84660   0.00000   0.01267  Uiso   1.00
N6     N     0.67330   0.15340   0.00000   0.01267  Uiso   1.00
N7     N     0.82670  -0.00000   0.84660   0.01267  Uiso   1.00
N8     N     0.67330   0.00000   0.15340   0.01267  Uiso   1.00
F1     F     0.11270  -0.00000   0.00000   0.01267  Uiso   1.00
F2     F     0.38730   1.00000   0.00000   0.01267  Uiso   1.00
F3     F     0.88730  -0.00000   1.00000   0.01267  Uiso   1.00
F4     F     0.61270  -0.00000   0.00000   0.01267  Uiso   1.00
F5     F     0.98160   0.93530   0.10150   0.01267  Uiso   1.00
F6     F     0.01840   0.06470   0.89850   0.01267  Uiso   1.00
F7     F     0.08310   0.89850   0.93530   0.01267  Uiso   1.00
F8     F     0.91690   0.10150   0.06470   0.01267  Uiso   1.00
F9     F     0.48160   0.10150   0.93530   0.01267  Uiso   1.00
F10    F     0.51840   0.89850   0.06470   0.01267  Uiso   1.00
F11    F     0.58310   0.93530   0.89850   0.01267  Uiso   1.00
F12    F     0.41690   0.06470   0.10150   0.01267  Uiso   1.00
