data_WOWGEU_clean
_audit_creation_date              2014-07-02
_audit_creation_method            'Materials Studio'
_symmetry_space_group_name_H-M    'P1'
_symmetry_Int_Tables_number       1
_symmetry_cell_setting            triclinic
loop_
_symmetry_equiv_pos_as_xyz
  x,y,z
_cell_length_a                    4.9780
_cell_length_b                    8.1890
_cell_length_c                    12.0000
_cell_angle_alpha                 90.0000
_cell_angle_beta                  90.0000
_cell_angle_gamma                 91.9700
loop_
_atom_site_label
_atom_site_type_symbol
_atom_site_fract_x
_atom_site_fract_y
_atom_site_fract_z
_atom_site_U_iso_or_equiv
_atom_site_adp_type
_atom_site_occupancy
Al1    Al    0.50000  -0.00000   0.50000   0.01267  Uiso   1.00
Al2    Al    0.50000  -0.00000   0.00000   0.01267  Uiso   1.00
Al3    Al    0.75840   0.85510   0.75000   0.01267  Uiso   1.00
Al4    Al    0.24160   0.14490   0.25000   0.01267  Uiso   1.00
P1     P     0.99480   0.76780   0.51474   0.01267  Uiso   1.00
P2     P     0.00520   0.23220   0.01474   0.01267  Uiso   1.00
P3     P     0.00520   0.23220   0.48526   0.01267  Uiso   1.00
P4     P     0.99480   0.76780   0.98526   0.01267  Uiso   1.00
H1     H     0.96430   0.55700   0.38830   0.01267  Uiso   1.00
H2     H     0.72530   0.53900   0.48130   0.01267  Uiso   1.00
H3     H     0.03570   0.44300   0.88830   0.01267  Uiso   1.00
H4     H     0.27470   0.46100   0.98130   0.01267  Uiso   1.00
H5     H     0.03570   0.44300   0.61170   0.01267  Uiso   1.00
H6     H     0.27470   0.46100   0.51870   0.01267  Uiso   1.00
H7     H     0.96430   0.55700   0.11170   0.01267  Uiso   1.00
H8     H     0.72530   0.53900   0.01870   0.01267  Uiso   1.00
C1     C     0.92130   0.56400   0.46930   0.01267  Uiso   1.00
C2     C     0.07870   0.43600   0.96930   0.01267  Uiso   1.00
C3     C     0.07870   0.43600   0.53070   0.01267  Uiso   1.00
C4     C     0.92130   0.56400   0.03070   0.01267  Uiso   1.00
O1     O     0.96420   0.76700   0.64160   0.01267  Uiso   1.00
O2     O     0.79700   0.88080   0.45670   0.01267  Uiso   1.00
O3     O     0.28360   0.80720   0.48090   0.01267  Uiso   1.00
O4     O     0.03580   0.23300   0.14160   0.01267  Uiso   1.00
O5     O     0.20300   0.11920   0.95670   0.01267  Uiso   1.00
O6     O     0.71640   0.19280   0.98090   0.01267  Uiso   1.00
O7     O     0.03580   0.23300   0.35840   0.01267  Uiso   1.00
O8     O     0.20300   0.11920   0.54330   0.01267  Uiso   1.00
O9     O     0.71640   0.19280   0.51910   0.01267  Uiso   1.00
O10    O     0.96420   0.76700   0.85840   0.01267  Uiso   1.00
O11    O     0.79700   0.88080   0.04330   0.01267  Uiso   1.00
O12    O     0.28360   0.80720   0.01910   0.01267  Uiso   1.00
F1     F     0.54700   0.95230   0.64690   0.01267  Uiso   1.00
F2     F     0.45300   0.04770   0.14690   0.01267  Uiso   1.00
F3     F     0.45300   0.04770   0.35310   0.01267  Uiso   1.00
F4     F     0.54700   0.95230   0.85310   0.01267  Uiso   1.00
