data_XACYAB_clean
_audit_creation_date              2014-07-02
_audit_creation_method            'Materials Studio'
_symmetry_space_group_name_H-M    'P1'
_symmetry_Int_Tables_number       1
_symmetry_cell_setting            triclinic
loop_
_symmetry_equiv_pos_as_xyz
  x,y,z
_cell_length_a                    13.6309
_cell_length_b                    13.6309
_cell_length_c                    13.6309
_cell_angle_alpha                 105.8500
_cell_angle_beta                  109.7370
_cell_angle_gamma                 112.9030
loop_
_atom_site_label
_atom_site_type_symbol
_atom_site_fract_x
_atom_site_fract_y
_atom_site_fract_z
_atom_site_U_iso_or_equiv
_atom_site_adp_type
_atom_site_occupancy
Co1    Co    0.00000   0.50000   0.50000   0.01267  Uiso   1.00
Co2    Co    0.50000   1.00000   0.50000   0.01267  Uiso   1.00
H1     H     0.95860   0.63850   0.35710   0.01267  Uiso   1.00
H2     H     0.95890   0.65680   0.19650   0.01267  Uiso   1.00
H3     H     0.98750   0.36660   0.11010   0.01267  Uiso   1.00
H4     H     0.98780   0.35720   0.26840   0.01267  Uiso   1.00
H5     H     0.97920   0.58980   0.02480   0.01267  Uiso   1.00
H6     H     0.28140   0.60150   0.64290   0.01267  Uiso   1.00
H7     H     0.46030   0.76240   0.80350   0.01267  Uiso   1.00
H8     H     0.25650   0.87740   0.88990   0.01267  Uiso   1.00
H9     H     0.08880   0.71940   0.73160   0.01267  Uiso   1.00
H10    H     0.56500   0.95440   0.97520   0.01267  Uiso   1.00
H11    H     0.54140   0.89850   0.67990   0.01267  Uiso   1.00
H12    H     0.54110   0.73760   0.69790   0.01267  Uiso   1.00
H13    H     0.51250   0.62260   0.37910   0.01267  Uiso   1.00
H14    H     0.51220   0.78060   0.36940   0.01267  Uiso   1.00
H15    H     0.52080   0.54560   0.61060   0.01267  Uiso   1.00
H16    H     0.21860   0.86150   0.32010   0.01267  Uiso   1.00
H17    H     0.03970   0.84320   0.30210   0.01267  Uiso   1.00
H18    H     0.24350   0.13340   0.62090   0.01267  Uiso   1.00
H19    H     0.41120   0.14280   0.63060   0.01267  Uiso   1.00
H20    H     0.93500   0.91020   0.38940   0.01267  Uiso   1.00
H21    H     0.04140   0.36150   0.64290   0.01267  Uiso   1.00
H22    H     0.04110   0.34320   0.80350   0.01267  Uiso   1.00
H23    H     0.01250   0.63340   0.88990   0.01267  Uiso   1.00
H24    H     0.01220   0.64280   0.73160   0.01267  Uiso   1.00
H25    H     0.02080   0.41020   0.97520   0.01267  Uiso   1.00
H26    H     0.71860   0.39850   0.35710   0.01267  Uiso   1.00
H27    H     0.53970   0.23760   0.19650   0.01267  Uiso   1.00
H28    H     0.74350   0.12260   0.11010   0.01267  Uiso   1.00
H29    H     0.91120   0.28060   0.26840   0.01267  Uiso   1.00
H30    H     0.43500   0.04560   0.02480   0.01267  Uiso   1.00
H31    H     0.45860   0.10150   0.32010   0.01267  Uiso   1.00
H32    H     0.45890   0.26240   0.30210   0.01267  Uiso   1.00
H33    H     0.48750   0.37740   0.62090   0.01267  Uiso   1.00
H34    H     0.48780   0.21940   0.63060   0.01267  Uiso   1.00
H35    H     0.47920   0.45440   0.38940   0.01267  Uiso   1.00
H36    H     0.78140   0.13850   0.67990   0.01267  Uiso   1.00
H37    H     0.96030   0.15680   0.69790   0.01267  Uiso   1.00
H38    H     0.75650   0.86660   0.37910   0.01267  Uiso   1.00
H39    H     0.58880   0.85720   0.36940   0.01267  Uiso   1.00
H40    H     0.06500   0.08980   0.61060   0.01267  Uiso   1.00
C1     C     0.83690   0.21160   0.37470   0.01267  Uiso   1.00
C2     C     0.96470   0.58310   0.30580   0.01267  Uiso   1.00
C3     C     0.96370   0.59530   0.21060   0.01267  Uiso   1.00
C4     C     0.97070   0.50160   0.12870   0.01267  Uiso   1.00
C5     C     0.98050   0.42320   0.15870   0.01267  Uiso   1.00
C6     C     0.98160   0.41780   0.25360   0.01267  Uiso   1.00
C7     C     0.98770   0.52790   0.03400   0.01267  Uiso   1.00
C8     C     0.83690   0.46220   0.62530   0.01267  Uiso   1.00
C9     C     0.27730   0.65890   0.69420   0.01267  Uiso   1.00
C10    C     0.38470   0.75310   0.78940   0.01267  Uiso   1.00
C11    C     0.37290   0.84200   0.87130   0.01267  Uiso   1.00
C12    C     0.26450   0.82180   0.84130   0.01267  Uiso   1.00
C13    C     0.16420   0.72800   0.74640   0.01267  Uiso   1.00
C14    C     0.49390   0.95370   0.96600   0.01267  Uiso   1.00
C15    C     0.66310   0.03780   0.37470   0.01267  Uiso   1.00
C16    C     0.53530   0.84110   0.61840   0.01267  Uiso   1.00
C17    C     0.53630   0.74690   0.63160   0.01267  Uiso   1.00
C18    C     0.52930   0.65800   0.53090   0.01267  Uiso   1.00
C19    C     0.51950   0.67820   0.44270   0.01267  Uiso   1.00
C20    C     0.51840   0.77200   0.43620   0.01267  Uiso   1.00
C21    C     0.51230   0.54630   0.54020   0.01267  Uiso   1.00
C22    C     0.66310   0.28840   0.62530   0.01267  Uiso   1.00
C23    C     0.22270   0.91690   0.38160   0.01267  Uiso   1.00
C24    C     0.11530   0.90470   0.36840   0.01267  Uiso   1.00
C25    C     0.12710   0.99840   0.46910   0.01267  Uiso   1.00
C26    C     0.23550   0.07680   0.55730   0.01267  Uiso   1.00
C27    C     0.33580   0.08220   0.56380   0.01267  Uiso   1.00
C28    C     0.00610   0.97210   0.45980   0.01267  Uiso   1.00
C29    C     0.16310   0.78840   0.62530   0.01267  Uiso   1.00
C30    C     0.03530   0.41690   0.69420   0.01267  Uiso   1.00
C31    C     0.03630   0.40470   0.78940   0.01267  Uiso   1.00
C32    C     0.02930   0.49840   0.87130   0.01267  Uiso   1.00
C33    C     0.01950   0.57680   0.84130   0.01267  Uiso   1.00
C34    C     0.01840   0.58220   0.74640   0.01267  Uiso   1.00
C35    C     0.01230   0.47210   0.96600   0.01267  Uiso   1.00
C36    C     0.16310   0.53780   0.37470   0.01267  Uiso   1.00
C37    C     0.72270   0.34110   0.30580   0.01267  Uiso   1.00
C38    C     0.61530   0.24690   0.21060   0.01267  Uiso   1.00
C39    C     0.62710   0.15800   0.12870   0.01267  Uiso   1.00
C40    C     0.73550   0.17820   0.15870   0.01267  Uiso   1.00
C41    C     0.83580   0.27200   0.25360   0.01267  Uiso   1.00
C42    C     0.50610   0.04630   0.03400   0.01267  Uiso   1.00
C43    C     0.33690   0.96220   0.62530   0.01267  Uiso   1.00
C44    C     0.46470   0.15890   0.38160   0.01267  Uiso   1.00
C45    C     0.46370   0.25310   0.36840   0.01267  Uiso   1.00
C46    C     0.47070   0.34200   0.46910   0.01267  Uiso   1.00
C47    C     0.48050   0.32180   0.55730   0.01267  Uiso   1.00
C48    C     0.48160   0.22800   0.56380   0.01267  Uiso   1.00
C49    C     0.48770   0.45370   0.45980   0.01267  Uiso   1.00
C50    C     0.33690   0.71160   0.37470   0.01267  Uiso   1.00
C51    C     0.77730   0.08310   0.61840   0.01267  Uiso   1.00
C52    C     0.88470   0.09530   0.63160   0.01267  Uiso   1.00
C53    C     0.87290   0.00160   0.53090   0.01267  Uiso   1.00
C54    C     0.76450   0.92320   0.44270   0.01267  Uiso   1.00
C55    C     0.66420   0.91780   0.43620   0.01267  Uiso   1.00
C56    C     0.99390   0.02790   0.54020   0.01267  Uiso   1.00
S1     S     0.75340   0.06850   0.31510   0.01267  Uiso   1.00
S2     S     0.75340   0.43830   0.68490   0.01267  Uiso   1.00
S3     S     0.74660   0.06170   0.31510   0.01267  Uiso   1.00
S4     S     0.74660   0.43150   0.68490   0.01267  Uiso   1.00
S5     S     0.24660   0.93150   0.68490   0.01267  Uiso   1.00
S6     S     0.24660   0.56170   0.31510   0.01267  Uiso   1.00
S7     S     0.25340   0.93830   0.68490   0.01267  Uiso   1.00
S8     S     0.25340   0.56850   0.31510   0.01267  Uiso   1.00
N1     N     0.89850   0.31300   0.41450   0.01267  Uiso   1.00
N2     N     0.97360   0.49990   0.33330   0.01267  Uiso   1.00
N3     N     0.89850   0.48400   0.58550   0.01267  Uiso   1.00
N4     N     0.16660   0.64030   0.66670   0.01267  Uiso   1.00
N5     N     0.60150   0.01600   0.41450   0.01267  Uiso   1.00
N6     N     0.52640   0.85970   0.52630   0.01267  Uiso   1.00
N7     N     0.60150   0.18700   0.58550   0.01267  Uiso   1.00
N8     N     0.33340   0.00010   0.47370   0.01267  Uiso   1.00
N9     N     0.10150   0.68700   0.58550   0.01267  Uiso   1.00
N10    N     0.02640   0.50010   0.66670   0.01267  Uiso   1.00
N11    N     0.10150   0.51600   0.41450   0.01267  Uiso   1.00
N12    N     0.83340   0.35970   0.33330   0.01267  Uiso   1.00
N13    N     0.39850   0.98400   0.58550   0.01267  Uiso   1.00
N14    N     0.47360   0.14030   0.47370   0.01267  Uiso   1.00
N15    N     0.39850   0.81300   0.41450   0.01267  Uiso   1.00
N16    N     0.66660   0.99990   0.52630   0.01267  Uiso   1.00
