data_XAJQAC_clean
_audit_creation_date              2014-07-02
_audit_creation_method            'Materials Studio'
_symmetry_space_group_name_H-M    'P1'
_symmetry_Int_Tables_number       1
_symmetry_cell_setting            triclinic
loop_
_symmetry_equiv_pos_as_xyz
  x,y,z
_cell_length_a                    14.3253
_cell_length_b                    15.6323
_cell_length_c                    16.1854
_cell_angle_alpha                 90.0000
_cell_angle_beta                  90.0000
_cell_angle_gamma                 103.2370
loop_
_atom_site_label
_atom_site_type_symbol
_atom_site_fract_x
_atom_site_fract_y
_atom_site_fract_z
_atom_site_U_iso_or_equiv
_atom_site_adp_type
_atom_site_occupancy
In1    In    1.00000   0.50000   0.00000   0.01267  Uiso   1.00
In2    In    0.50000   0.50000   0.00000   0.01267  Uiso   1.00
In3    In    0.25000   0.50000   0.00820   0.01267  Uiso   1.00
In4    In    0.75000   0.50000   0.99180   0.01267  Uiso   1.00
H1     H     0.15160   0.69970   0.50350   0.01267  Uiso   1.00
H2     H     0.21740   0.91090   0.71940   0.01267  Uiso   1.00
H3     H     0.21530   0.91090   0.28780   0.01267  Uiso   1.00
H4     H     0.32370   0.67680   0.80180   0.01267  Uiso   1.00
H5     H     0.32590   0.72810   0.65620   0.01267  Uiso   1.00
H6     H     0.07070   0.80820   0.70650   0.01267  Uiso   1.00
H7     H     0.05020   0.71740   0.83370   0.01267  Uiso   1.00
H8     H     0.32540   0.67340   0.20750   0.01267  Uiso   1.00
H9     H     0.32900   0.73140   0.35080   0.01267  Uiso   1.00
H10    H     0.06700   0.80000   0.30140   0.01267  Uiso   1.00
H11    H     0.04590   0.70250   0.17850   0.01267  Uiso   1.00
H12    H     0.34840   0.30030   0.50350   0.01267  Uiso   1.00
H13    H     0.28260   0.08910   0.71940   0.01267  Uiso   1.00
H14    H     0.28470   0.08910   0.28780   0.01267  Uiso   1.00
H15    H     0.17630   0.32320   0.80180   0.01267  Uiso   1.00
H16    H     0.17410   0.27190   0.65620   0.01267  Uiso   1.00
H17    H     0.42930   0.19180   0.70650   0.01267  Uiso   1.00
H18    H     0.44980   0.28260   0.83370   0.01267  Uiso   1.00
H19    H     0.17460   0.32660   0.20750   0.01267  Uiso   1.00
H20    H     0.17100   0.26860   0.35080   0.01267  Uiso   1.00
H21    H     0.43300   0.20000   0.30140   0.01267  Uiso   1.00
H22    H     0.45410   0.29750   0.17850   0.01267  Uiso   1.00
H23    H     0.84840   0.30030   0.49650   0.01267  Uiso   1.00
H24    H     0.78260   0.08910   0.28060   0.01267  Uiso   1.00
H25    H     0.78470   0.08910   0.71220   0.01267  Uiso   1.00
H26    H     0.67630   0.32320   0.19820   0.01267  Uiso   1.00
H27    H     0.67410   0.27190   0.34380   0.01267  Uiso   1.00
H28    H     0.92930   0.19180   0.29350   0.01267  Uiso   1.00
H29    H     0.94980   0.28260   0.16630   0.01267  Uiso   1.00
H30    H     0.67460   0.32660   0.79250   0.01267  Uiso   1.00
H31    H     0.67100   0.26860   0.64920   0.01267  Uiso   1.00
H32    H     0.93300   0.20000   0.69860   0.01267  Uiso   1.00
H33    H     0.95410   0.29750   0.82150   0.01267  Uiso   1.00
H34    H     0.65160   0.69970   0.49650   0.01267  Uiso   1.00
H35    H     0.71740   0.91090   0.28060   0.01267  Uiso   1.00
H36    H     0.71530   0.91090   0.71220   0.01267  Uiso   1.00
H37    H     0.82370   0.67680   0.19820   0.01267  Uiso   1.00
H38    H     0.82590   0.72810   0.34380   0.01267  Uiso   1.00
H39    H     0.57070   0.80820   0.29350   0.01267  Uiso   1.00
H40    H     0.55020   0.71740   0.16630   0.01267  Uiso   1.00
H41    H     0.82540   0.67340   0.79250   0.01267  Uiso   1.00
H42    H     0.82900   0.73140   0.64920   0.01267  Uiso   1.00
H43    H     0.56700   0.80000   0.69860   0.01267  Uiso   1.00
H44    H     0.54590   0.70250   0.82150   0.01267  Uiso   1.00
C1     C     0.15870   0.61040   0.88130   0.01267  Uiso   1.00
C2     C     0.16520   0.61030   0.12250   0.01267  Uiso   1.00
C3     C     0.18020   0.68060   0.81950   0.01267  Uiso   1.00
C4     C     0.18170   0.67590   0.18890   0.01267  Uiso   1.00
C5     C     0.26030   0.69410   0.77570   0.01267  Uiso   1.00
C6     C     0.26200   0.69130   0.23270   0.01267  Uiso   1.00
C7     C     0.26480   0.73050   0.69550   0.01267  Uiso   1.00
C8     C     0.26670   0.73080   0.31180   0.01267  Uiso   1.00
C9     C     0.19450   0.76870   0.66560   0.01267  Uiso   1.00
C10    C     0.19540   0.76820   0.34110   0.01267  Uiso   1.00
C11    C     0.12280   0.76930   0.72060   0.01267  Uiso   1.00
C12    C     0.12120   0.76330   0.28760   0.01267  Uiso   1.00
C13    C     0.11360   0.72120   0.79530   0.01267  Uiso   1.00
C14    C     0.11190   0.71220   0.21440   0.01267  Uiso   1.00
C15    C     0.20310   0.81860   0.58130   0.01267  Uiso   1.00
C16    C     0.20240   0.81850   0.42560   0.01267  Uiso   1.00
C17    C     0.22610   0.91050   0.58240   0.01267  Uiso   1.00
C18    C     0.22640   0.91040   0.42450   0.01267  Uiso   1.00
C19    C     0.23120   0.95170   0.66410   0.01267  Uiso   1.00
C20    C     0.23060   0.95160   0.34300   0.01267  Uiso   1.00
C21    C     0.18200   0.77030   0.50350   0.01267  Uiso   1.00
C22    C     0.23430   0.95550   0.50340   0.01267  Uiso   1.00
C23    C     0.34130   0.38960   0.88130   0.01267  Uiso   1.00
C24    C     0.33480   0.38970   0.12250   0.01267  Uiso   1.00
C25    C     0.31980   0.31940   0.81950   0.01267  Uiso   1.00
C26    C     0.31830   0.32410   0.18890   0.01267  Uiso   1.00
C27    C     0.23970   0.30590   0.77570   0.01267  Uiso   1.00
C28    C     0.23800   0.30870   0.23270   0.01267  Uiso   1.00
C29    C     0.23520   0.26950   0.69550   0.01267  Uiso   1.00
C30    C     0.23330   0.26920   0.31180   0.01267  Uiso   1.00
C31    C     0.30550   0.23130   0.66560   0.01267  Uiso   1.00
C32    C     0.30460   0.23180   0.34110   0.01267  Uiso   1.00
C33    C     0.37720   0.23070   0.72060   0.01267  Uiso   1.00
C34    C     0.37880   0.23670   0.28760   0.01267  Uiso   1.00
C35    C     0.38640   0.27880   0.79530   0.01267  Uiso   1.00
C36    C     0.38810   0.28780   0.21440   0.01267  Uiso   1.00
C37    C     0.29690   0.18140   0.58130   0.01267  Uiso   1.00
C38    C     0.29760   0.18150   0.42560   0.01267  Uiso   1.00
C39    C     0.27390   0.08950   0.58240   0.01267  Uiso   1.00
C40    C     0.27360   0.08960   0.42450   0.01267  Uiso   1.00
C41    C     0.26880   0.04830   0.66410   0.01267  Uiso   1.00
C42    C     0.26940   0.04840   0.34300   0.01267  Uiso   1.00
C43    C     0.31800   0.22970   0.50350   0.01267  Uiso   1.00
C44    C     0.26570   0.04450   0.50340   0.01267  Uiso   1.00
C45    C     0.84130   0.38960   0.11870   0.01267  Uiso   1.00
C46    C     0.83480   0.38970   0.87750   0.01267  Uiso   1.00
C47    C     0.81980   0.31940   0.18050   0.01267  Uiso   1.00
C48    C     0.81830   0.32410   0.81110   0.01267  Uiso   1.00
C49    C     0.73970   0.30590   0.22430   0.01267  Uiso   1.00
C50    C     0.73800   0.30870   0.76730   0.01267  Uiso   1.00
C51    C     0.73520   0.26950   0.30450   0.01267  Uiso   1.00
C52    C     0.73330   0.26920   0.68820   0.01267  Uiso   1.00
C53    C     0.80550   0.23130   0.33440   0.01267  Uiso   1.00
C54    C     0.80460   0.23180   0.65890   0.01267  Uiso   1.00
C55    C     0.87720   0.23070   0.27940   0.01267  Uiso   1.00
C56    C     0.87880   0.23670   0.71240   0.01267  Uiso   1.00
C57    C     0.88640   0.27880   0.20470   0.01267  Uiso   1.00
C58    C     0.88810   0.28780   0.78560   0.01267  Uiso   1.00
C59    C     0.79690   0.18140   0.41870   0.01267  Uiso   1.00
C60    C     0.79760   0.18150   0.57440   0.01267  Uiso   1.00
C61    C     0.77390   0.08950   0.41760   0.01267  Uiso   1.00
C62    C     0.77360   0.08960   0.57550   0.01267  Uiso   1.00
C63    C     0.76880   0.04830   0.33590   0.01267  Uiso   1.00
C64    C     0.76940   0.04840   0.65700   0.01267  Uiso   1.00
C65    C     0.81800   0.22970   0.49650   0.01267  Uiso   1.00
C66    C     0.76570   0.04450   0.49660   0.01267  Uiso   1.00
C67    C     0.65870   0.61040   0.11870   0.01267  Uiso   1.00
C68    C     0.66520   0.61030   0.87750   0.01267  Uiso   1.00
C69    C     0.68020   0.68060   0.18050   0.01267  Uiso   1.00
C70    C     0.68170   0.67590   0.81110   0.01267  Uiso   1.00
C71    C     0.76030   0.69410   0.22430   0.01267  Uiso   1.00
C72    C     0.76200   0.69130   0.76730   0.01267  Uiso   1.00
C73    C     0.76480   0.73050   0.30450   0.01267  Uiso   1.00
C74    C     0.76670   0.73080   0.68820   0.01267  Uiso   1.00
C75    C     0.69450   0.76870   0.33440   0.01267  Uiso   1.00
C76    C     0.69540   0.76820   0.65890   0.01267  Uiso   1.00
C77    C     0.62280   0.76930   0.27940   0.01267  Uiso   1.00
C78    C     0.62120   0.76330   0.71240   0.01267  Uiso   1.00
C79    C     0.61360   0.72120   0.20470   0.01267  Uiso   1.00
C80    C     0.61190   0.71220   0.78560   0.01267  Uiso   1.00
C81    C     0.70310   0.81860   0.41870   0.01267  Uiso   1.00
C82    C     0.70240   0.81850   0.57440   0.01267  Uiso   1.00
C83    C     0.72610   0.91050   0.41760   0.01267  Uiso   1.00
C84    C     0.72640   0.91040   0.57550   0.01267  Uiso   1.00
C85    C     0.73120   0.95170   0.33590   0.01267  Uiso   1.00
C86    C     0.73060   0.95160   0.65700   0.01267  Uiso   1.00
C87    C     0.68200   0.77030   0.49650   0.01267  Uiso   1.00
C88    C     0.73430   0.95550   0.49660   0.01267  Uiso   1.00
O1     O     0.88700   0.55480   0.99860   0.01267  Uiso   1.00
O2     O     0.07440   0.57870   0.90040   0.01267  Uiso   1.00
O3     O     0.23580   0.58270   0.10520   0.01267  Uiso   1.00
O4     O     0.23160   0.57370   0.89950   0.01267  Uiso   1.00
O5     O     0.07770   0.57810   0.09870   0.01267  Uiso   1.00
O6     O     0.61300   0.44520   0.99860   0.01267  Uiso   1.00
O7     O     0.42560   0.42130   0.90040   0.01267  Uiso   1.00
O8     O     0.26420   0.41730   0.10520   0.01267  Uiso   1.00
O9     O     0.26840   0.42630   0.89950   0.01267  Uiso   1.00
O10    O     0.42230   0.42190   0.09870   0.01267  Uiso   1.00
O11    O     0.11300   0.44520   0.00140   0.01267  Uiso   1.00
O12    O     0.92560   0.42130   0.09960   0.01267  Uiso   1.00
O13    O     0.76420   0.41730   0.89480   0.01267  Uiso   1.00
O14    O     0.76840   0.42630   0.10050   0.01267  Uiso   1.00
O15    O     0.92230   0.42190   0.90130   0.01267  Uiso   1.00
O16    O     0.38700   0.55480   0.00140   0.01267  Uiso   1.00
O17    O     0.57440   0.57870   0.09960   0.01267  Uiso   1.00
O18    O     0.73580   0.58270   0.89480   0.01267  Uiso   1.00
O19    O     0.73160   0.57370   0.10050   0.01267  Uiso   1.00
O20    O     0.57770   0.57810   0.90130   0.01267  Uiso   1.00
