data_XAKQIL_clean
_audit_creation_date              2014-07-02
_audit_creation_method            'Materials Studio'
_symmetry_space_group_name_H-M    'P1'
_symmetry_Int_Tables_number       1
_symmetry_cell_setting            triclinic
loop_
_symmetry_equiv_pos_as_xyz
  x,y,z
_cell_length_a                    9.6221
_cell_length_b                    9.6221
_cell_length_c                    48.4414
_cell_angle_alpha                 90.0000
_cell_angle_beta                  90.0000
_cell_angle_gamma                 120.0000
loop_
_atom_site_label
_atom_site_type_symbol
_atom_site_fract_x
_atom_site_fract_y
_atom_site_fract_z
_atom_site_U_iso_or_equiv
_atom_site_adp_type
_atom_site_occupancy
Co1    Co    0.29762   0.59524   0.08333   0.01267  Uiso   1.00
Co2    Co    0.29762   0.70238   0.75000   0.01267  Uiso   1.00
Co3    Co    0.40476   0.70238   0.41667   0.01267  Uiso   1.00
Co4    Co    0.70238   0.40476   0.58333   0.01267  Uiso   1.00
Co5    Co    0.70238   0.29762   0.25000   0.01267  Uiso   1.00
Co6    Co    0.59524   0.29762   0.91667   0.01267  Uiso   1.00
H1     H     0.54400   0.64100   0.04620   0.01267  Uiso   1.00
H2     H     0.62630   0.19170   0.06830   0.01267  Uiso   1.00
H3     H     0.22730   0.28040   0.10820   0.01267  Uiso   1.00
H4     H     0.35730   0.24530   0.12050   0.01267  Uiso   1.00
H5     H     0.24600   0.13880   0.09640   0.01267  Uiso   1.00
H6     H     0.78050   0.63170   0.02530   0.01267  Uiso   1.00
H7     H     0.78520   0.47230   0.02910   0.01267  Uiso   1.00
H8     H     0.87130   0.61170   0.05050   0.01267  Uiso   1.00
H9     H     0.16520   0.89480   0.04480   0.01267  Uiso   1.00
H10    H     0.14020   0.10780   0.02840   0.01267  Uiso   1.00
H11    H     0.56590   0.28210   0.99030   0.01267  Uiso   1.00
H12    H     0.58920   0.06890   0.00640   0.01267  Uiso   1.00
H13    H     0.09700   0.45600   0.71287   0.01267  Uiso   1.00
H14    H     0.56540   0.37370   0.73497   0.01267  Uiso   1.00
H15    H     0.05310   0.77270   0.77487   0.01267  Uiso   1.00
H16    H     0.88800   0.64270   0.78717   0.01267  Uiso   1.00
H17    H     0.89280   0.75400   0.76307   0.01267  Uiso   1.00
H18    H     0.85120   0.21950   0.69197   0.01267  Uiso   1.00
H19    H     0.68710   0.21480   0.69577   0.01267  Uiso   1.00
H20    H     0.74040   0.12870   0.71717   0.01267  Uiso   1.00
H21    H     0.72960   0.83480   0.71147   0.01267  Uiso   1.00
H22    H     0.96760   0.85980   0.69507   0.01267  Uiso   1.00
H23    H     0.71620   0.43410   0.65697   0.01267  Uiso   1.00
H24    H     0.47970   0.41080   0.67307   0.01267  Uiso   1.00
H25    H     0.35900   0.90300   0.37953   0.01267  Uiso   1.00
H26    H     0.80830   0.43460   0.40163   0.01267  Uiso   1.00
H27    H     0.71960   0.94690   0.44153   0.01267  Uiso   1.00
H28    H     0.75470   0.11200   0.45383   0.01267  Uiso   1.00
H29    H     0.86120   0.10720   0.42973   0.01267  Uiso   1.00
H30    H     0.36830   0.14880   0.35863   0.01267  Uiso   1.00
H31    H     0.52770   0.31290   0.36243   0.01267  Uiso   1.00
H32    H     0.38830   0.25960   0.38383   0.01267  Uiso   1.00
H33    H     0.10520   0.27040   0.37813   0.01267  Uiso   1.00
H34    H     0.89220   0.03240   0.36173   0.01267  Uiso   1.00
H35    H     0.71790   0.28380   0.32363   0.01267  Uiso   1.00
H36    H     0.93110   0.52030   0.33973   0.01267  Uiso   1.00
H37    H     0.45600   0.35900   0.54620   0.01267  Uiso   1.00
H38    H     0.37370   0.80830   0.56830   0.01267  Uiso   1.00
H39    H     0.77270   0.71960   0.60820   0.01267  Uiso   1.00
H40    H     0.64270   0.75470   0.62050   0.01267  Uiso   1.00
H41    H     0.75400   0.86120   0.59640   0.01267  Uiso   1.00
H42    H     0.21950   0.36830   0.52530   0.01267  Uiso   1.00
H43    H     0.21480   0.52770   0.52910   0.01267  Uiso   1.00
H44    H     0.12870   0.38830   0.55050   0.01267  Uiso   1.00
H45    H     0.83480   0.10520   0.54480   0.01267  Uiso   1.00
H46    H     0.85980   0.89220   0.52840   0.01267  Uiso   1.00
H47    H     0.43410   0.71790   0.49030   0.01267  Uiso   1.00
H48    H     0.41080   0.93110   0.50640   0.01267  Uiso   1.00
H49    H     0.90300   0.54400   0.21287   0.01267  Uiso   1.00
H50    H     0.43460   0.62630   0.23497   0.01267  Uiso   1.00
H51    H     0.94690   0.22730   0.27487   0.01267  Uiso   1.00
H52    H     0.11200   0.35730   0.28717   0.01267  Uiso   1.00
H53    H     0.10720   0.24600   0.26307   0.01267  Uiso   1.00
H54    H     0.14880   0.78050   0.19197   0.01267  Uiso   1.00
H55    H     0.31290   0.78520   0.19577   0.01267  Uiso   1.00
H56    H     0.25960   0.87130   0.21717   0.01267  Uiso   1.00
H57    H     0.27040   0.16520   0.21147   0.01267  Uiso   1.00
H58    H     0.03240   0.14020   0.19507   0.01267  Uiso   1.00
H59    H     0.28380   0.56590   0.15697   0.01267  Uiso   1.00
H60    H     0.52030   0.58920   0.17307   0.01267  Uiso   1.00
H61    H     0.64100   0.09700   0.87953   0.01267  Uiso   1.00
H62    H     0.19170   0.56540   0.90163   0.01267  Uiso   1.00
H63    H     0.28040   0.05310   0.94153   0.01267  Uiso   1.00
H64    H     0.24530   0.88800   0.95383   0.01267  Uiso   1.00
H65    H     0.13880   0.89280   0.92973   0.01267  Uiso   1.00
H66    H     0.63170   0.85120   0.85863   0.01267  Uiso   1.00
H67    H     0.47230   0.68710   0.86243   0.01267  Uiso   1.00
H68    H     0.61170   0.74040   0.88383   0.01267  Uiso   1.00
H69    H     0.89480   0.72960   0.87813   0.01267  Uiso   1.00
H70    H     0.10780   0.96760   0.86173   0.01267  Uiso   1.00
H71    H     0.28210   0.71620   0.82363   0.01267  Uiso   1.00
H72    H     0.06890   0.47970   0.83973   0.01267  Uiso   1.00
H73    H     0.90300   0.35900   0.62047   0.01267  Uiso   1.00
H74    H     0.43460   0.80830   0.59837   0.01267  Uiso   1.00
H75    H     0.94690   0.71960   0.55847   0.01267  Uiso   1.00
H76    H     0.11200   0.75470   0.54617   0.01267  Uiso   1.00
H77    H     0.10720   0.86120   0.57027   0.01267  Uiso   1.00
H78    H     0.14880   0.36830   0.64137   0.01267  Uiso   1.00
H79    H     0.31290   0.52770   0.63757   0.01267  Uiso   1.00
H80    H     0.25960   0.38830   0.61617   0.01267  Uiso   1.00
H81    H     0.27040   0.10520   0.62187   0.01267  Uiso   1.00
H82    H     0.03240   0.89220   0.63827   0.01267  Uiso   1.00
H83    H     0.28380   0.71790   0.67637   0.01267  Uiso   1.00
H84    H     0.52030   0.93110   0.66027   0.01267  Uiso   1.00
H85    H     0.64100   0.54400   0.95380   0.01267  Uiso   1.00
H86    H     0.19170   0.62630   0.93170   0.01267  Uiso   1.00
H87    H     0.28040   0.22730   0.89180   0.01267  Uiso   1.00
H88    H     0.24530   0.35730   0.87950   0.01267  Uiso   1.00
H89    H     0.13880   0.24600   0.90360   0.01267  Uiso   1.00
H90    H     0.63170   0.78050   0.97470   0.01267  Uiso   1.00
H91    H     0.47230   0.78520   0.97090   0.01267  Uiso   1.00
H92    H     0.61170   0.87130   0.94950   0.01267  Uiso   1.00
H93    H     0.89480   0.16520   0.95520   0.01267  Uiso   1.00
H94    H     0.10780   0.14020   0.97160   0.01267  Uiso   1.00
H95    H     0.28210   0.56590   0.00970   0.01267  Uiso   1.00
H96    H     0.06890   0.58920   0.99360   0.01267  Uiso   1.00
H97    H     0.45600   0.09700   0.28713   0.01267  Uiso   1.00
H98    H     0.37370   0.56540   0.26503   0.01267  Uiso   1.00
H99    H     0.77270   0.05310   0.22513   0.01267  Uiso   1.00
H100   H     0.64270   0.88800   0.21283   0.01267  Uiso   1.00
H101   H     0.75400   0.89280   0.23693   0.01267  Uiso   1.00
H102   H     0.21950   0.85120   0.30803   0.01267  Uiso   1.00
H103   H     0.21480   0.68710   0.30423   0.01267  Uiso   1.00
H104   H     0.12870   0.74040   0.28283   0.01267  Uiso   1.00
H105   H     0.83480   0.72960   0.28853   0.01267  Uiso   1.00
H106   H     0.85980   0.96760   0.30493   0.01267  Uiso   1.00
H107   H     0.43410   0.71620   0.34303   0.01267  Uiso   1.00
H108   H     0.41080   0.47970   0.32693   0.01267  Uiso   1.00
H109   H     0.09700   0.64100   0.12047   0.01267  Uiso   1.00
H110   H     0.56540   0.19170   0.09837   0.01267  Uiso   1.00
H111   H     0.05310   0.28040   0.05847   0.01267  Uiso   1.00
H112   H     0.88800   0.24530   0.04617   0.01267  Uiso   1.00
H113   H     0.89280   0.13880   0.07027   0.01267  Uiso   1.00
H114   H     0.85120   0.63170   0.14137   0.01267  Uiso   1.00
H115   H     0.68710   0.47230   0.13757   0.01267  Uiso   1.00
H116   H     0.74040   0.61170   0.11617   0.01267  Uiso   1.00
H117   H     0.72960   0.89480   0.12187   0.01267  Uiso   1.00
H118   H     0.96760   0.10780   0.13827   0.01267  Uiso   1.00
H119   H     0.71620   0.28210   0.17637   0.01267  Uiso   1.00
H120   H     0.47970   0.06890   0.16027   0.01267  Uiso   1.00
H121   H     0.35900   0.45600   0.45380   0.01267  Uiso   1.00
H122   H     0.80830   0.37370   0.43170   0.01267  Uiso   1.00
H123   H     0.71960   0.77270   0.39180   0.01267  Uiso   1.00
H124   H     0.75470   0.64270   0.37950   0.01267  Uiso   1.00
H125   H     0.86120   0.75400   0.40360   0.01267  Uiso   1.00
H126   H     0.36830   0.21950   0.47470   0.01267  Uiso   1.00
H127   H     0.52770   0.21480   0.47090   0.01267  Uiso   1.00
H128   H     0.38830   0.12870   0.44950   0.01267  Uiso   1.00
H129   H     0.10520   0.83480   0.45520   0.01267  Uiso   1.00
H130   H     0.89220   0.85980   0.47160   0.01267  Uiso   1.00
H131   H     0.71790   0.43410   0.50970   0.01267  Uiso   1.00
H132   H     0.93110   0.41080   0.49360   0.01267  Uiso   1.00
H133   H     0.54400   0.90300   0.78713   0.01267  Uiso   1.00
H134   H     0.62630   0.43460   0.76503   0.01267  Uiso   1.00
H135   H     0.22730   0.94690   0.72513   0.01267  Uiso   1.00
H136   H     0.35730   0.11200   0.71283   0.01267  Uiso   1.00
H137   H     0.24600   0.10720   0.73693   0.01267  Uiso   1.00
H138   H     0.78050   0.14880   0.80803   0.01267  Uiso   1.00
H139   H     0.78520   0.31290   0.80423   0.01267  Uiso   1.00
H140   H     0.87130   0.25960   0.78283   0.01267  Uiso   1.00
H141   H     0.16520   0.27040   0.78853   0.01267  Uiso   1.00
H142   H     0.14020   0.03240   0.80493   0.01267  Uiso   1.00
H143   H     0.56590   0.28380   0.84303   0.01267  Uiso   1.00
H144   H     0.58920   0.52030   0.82693   0.01267  Uiso   1.00
C1     C     0.42120   0.35630   0.08336   0.01267  Uiso   1.00
C2     C     0.56150   0.36240   0.07377   0.01267  Uiso   1.00
C3     C     0.62870   0.48800   0.05536   0.01267  Uiso   1.00
C4     C     0.30240   0.24530   0.10394   0.01267  Uiso   1.00
C5     C     0.78010   0.55720   0.03856   0.01267  Uiso   1.00
C6     C     0.38070   0.96130   0.02778   0.01267  Uiso   1.00
C7     C     0.24610   0.97320   0.03397   0.01267  Uiso   1.00
C8     C     0.23060   0.10030   0.02420   0.01267  Uiso   1.00
C9     C     0.35250   0.21590   0.00809   0.01267  Uiso   1.00
C10    C     0.48590   0.20440   0.00132   0.01267  Uiso   1.00
C11    C     0.49990   0.07720   0.01103   0.01267  Uiso   1.00
C12    C     0.40080   0.82920   0.03988   0.01267  Uiso   1.00
C13    C     0.93510   0.57880   0.75003   0.01267  Uiso   1.00
C14    C     0.80090   0.43850   0.74044   0.01267  Uiso   1.00
C15    C     0.85930   0.37130   0.72203   0.01267  Uiso   1.00
C16    C     0.94290   0.69760   0.77061   0.01267  Uiso   1.00
C17    C     0.77710   0.21990   0.70523   0.01267  Uiso   1.00
C18    C     0.58060   0.61930   0.69445   0.01267  Uiso   1.00
C19    C     0.72710   0.75390   0.70064   0.01267  Uiso   1.00
C20    C     0.86970   0.76940   0.69087   0.01267  Uiso   1.00
C21    C     0.86340   0.64750   0.67476   0.01267  Uiso   1.00
C22    C     0.71850   0.51410   0.66799   0.01267  Uiso   1.00
C23    C     0.57730   0.50010   0.67770   0.01267  Uiso   1.00
C24    C     0.42840   0.59920   0.70655   0.01267  Uiso   1.00
C25    C     0.64370   0.06490   0.41669   0.01267  Uiso   1.00
C26    C     0.63760   0.19910   0.40710   0.01267  Uiso   1.00
C27    C     0.51200   0.14070   0.38869   0.01267  Uiso   1.00
C28    C     0.75470   0.05710   0.43727   0.01267  Uiso   1.00
C29    C     0.44280   0.22290   0.37189   0.01267  Uiso   1.00
C30    C     0.03870   0.41940   0.36111   0.01267  Uiso   1.00
C31    C     0.02680   0.27290   0.36730   0.01267  Uiso   1.00
C32    C     0.89970   0.13030   0.35753   0.01267  Uiso   1.00
C33    C     0.78410   0.13660   0.34142   0.01267  Uiso   1.00
C34    C     0.79560   0.28150   0.33465   0.01267  Uiso   1.00
C35    C     0.92280   0.42270   0.34436   0.01267  Uiso   1.00
C36    C     0.17080   0.57160   0.37321   0.01267  Uiso   1.00
C37    C     0.57880   0.64370   0.58336   0.01267  Uiso   1.00
C38    C     0.43850   0.63760   0.57377   0.01267  Uiso   1.00
C39    C     0.37130   0.51200   0.55536   0.01267  Uiso   1.00
C40    C     0.69760   0.75470   0.60394   0.01267  Uiso   1.00
C41    C     0.21990   0.44280   0.53856   0.01267  Uiso   1.00
C42    C     0.61930   0.03870   0.52778   0.01267  Uiso   1.00
C43    C     0.75390   0.02680   0.53397   0.01267  Uiso   1.00
C44    C     0.76940   0.89970   0.52420   0.01267  Uiso   1.00
C45    C     0.64750   0.78410   0.50809   0.01267  Uiso   1.00
C46    C     0.51410   0.79560   0.50132   0.01267  Uiso   1.00
C47    C     0.50010   0.92280   0.51103   0.01267  Uiso   1.00
C48    C     0.59920   0.17080   0.53988   0.01267  Uiso   1.00
C49    C     0.06490   0.42120   0.25003   0.01267  Uiso   1.00
C50    C     0.19910   0.56150   0.24044   0.01267  Uiso   1.00
C51    C     0.14070   0.62870   0.22203   0.01267  Uiso   1.00
C52    C     0.05710   0.30240   0.27061   0.01267  Uiso   1.00
C53    C     0.22290   0.78010   0.20523   0.01267  Uiso   1.00
C54    C     0.41940   0.38070   0.19445   0.01267  Uiso   1.00
C55    C     0.27290   0.24610   0.20064   0.01267  Uiso   1.00
C56    C     0.13030   0.23060   0.19087   0.01267  Uiso   1.00
C57    C     0.13660   0.35250   0.17476   0.01267  Uiso   1.00
C58    C     0.28150   0.48590   0.16799   0.01267  Uiso   1.00
C59    C     0.42270   0.49990   0.17770   0.01267  Uiso   1.00
C60    C     0.57160   0.40080   0.20655   0.01267  Uiso   1.00
C61    C     0.35630   0.93510   0.91669   0.01267  Uiso   1.00
C62    C     0.36240   0.80090   0.90710   0.01267  Uiso   1.00
C63    C     0.48800   0.85930   0.88869   0.01267  Uiso   1.00
C64    C     0.24530   0.94290   0.93727   0.01267  Uiso   1.00
C65    C     0.55720   0.77710   0.87189   0.01267  Uiso   1.00
C66    C     0.96130   0.58060   0.86111   0.01267  Uiso   1.00
C67    C     0.97320   0.72710   0.86730   0.01267  Uiso   1.00
C68    C     0.10030   0.86970   0.85753   0.01267  Uiso   1.00
C69    C     0.21590   0.86340   0.84142   0.01267  Uiso   1.00
C70    C     0.20440   0.71850   0.83465   0.01267  Uiso   1.00
C71    C     0.07720   0.57730   0.84436   0.01267  Uiso   1.00
C72    C     0.82920   0.42840   0.87321   0.01267  Uiso   1.00
C73    C     0.06490   0.64370   0.58331   0.01267  Uiso   1.00
C74    C     0.19910   0.63760   0.59290   0.01267  Uiso   1.00
C75    C     0.14070   0.51200   0.61131   0.01267  Uiso   1.00
C76    C     0.05710   0.75470   0.56273   0.01267  Uiso   1.00
C77    C     0.22290   0.44280   0.62811   0.01267  Uiso   1.00
C78    C     0.41940   0.03870   0.63889   0.01267  Uiso   1.00
C79    C     0.27290   0.02680   0.63270   0.01267  Uiso   1.00
C80    C     0.13030   0.89970   0.64247   0.01267  Uiso   1.00
C81    C     0.13660   0.78410   0.65858   0.01267  Uiso   1.00
C82    C     0.28150   0.79560   0.66535   0.01267  Uiso   1.00
C83    C     0.42270   0.92280   0.65564   0.01267  Uiso   1.00
C84    C     0.57160   0.17080   0.62679   0.01267  Uiso   1.00
C85    C     0.35630   0.42120   0.91664   0.01267  Uiso   1.00
C86    C     0.36240   0.56150   0.92623   0.01267  Uiso   1.00
C87    C     0.48800   0.62870   0.94464   0.01267  Uiso   1.00
C88    C     0.24530   0.30240   0.89606   0.01267  Uiso   1.00
C89    C     0.55720   0.78010   0.96144   0.01267  Uiso   1.00
C90    C     0.96130   0.38070   0.97222   0.01267  Uiso   1.00
C91    C     0.97320   0.24610   0.96603   0.01267  Uiso   1.00
C92    C     0.10030   0.23060   0.97580   0.01267  Uiso   1.00
C93    C     0.21590   0.35250   0.99191   0.01267  Uiso   1.00
C94    C     0.20440   0.48590   0.99868   0.01267  Uiso   1.00
C95    C     0.07720   0.49990   0.98897   0.01267  Uiso   1.00
C96    C     0.82920   0.40080   0.96012   0.01267  Uiso   1.00
C97    C     0.57880   0.93510   0.24997   0.01267  Uiso   1.00
C98    C     0.43850   0.80090   0.25956   0.01267  Uiso   1.00
C99    C     0.37130   0.85930   0.27797   0.01267  Uiso   1.00
C100   C     0.69760   0.94290   0.22939   0.01267  Uiso   1.00
C101   C     0.21990   0.77710   0.29477   0.01267  Uiso   1.00
C102   C     0.61930   0.58060   0.30555   0.01267  Uiso   1.00
C103   C     0.75390   0.72710   0.29936   0.01267  Uiso   1.00
C104   C     0.76940   0.86970   0.30913   0.01267  Uiso   1.00
C105   C     0.64750   0.86340   0.32524   0.01267  Uiso   1.00
C106   C     0.51410   0.71850   0.33201   0.01267  Uiso   1.00
C107   C     0.50010   0.57730   0.32230   0.01267  Uiso   1.00
C108   C     0.59920   0.42840   0.29345   0.01267  Uiso   1.00
C109   C     0.93510   0.35630   0.08331   0.01267  Uiso   1.00
C110   C     0.80090   0.36240   0.09290   0.01267  Uiso   1.00
C111   C     0.85930   0.48800   0.11131   0.01267  Uiso   1.00
C112   C     0.94290   0.24530   0.06273   0.01267  Uiso   1.00
C113   C     0.77710   0.55720   0.12811   0.01267  Uiso   1.00
C114   C     0.58060   0.96130   0.13889   0.01267  Uiso   1.00
C115   C     0.72710   0.97320   0.13270   0.01267  Uiso   1.00
C116   C     0.86970   0.10030   0.14247   0.01267  Uiso   1.00
C117   C     0.86340   0.21590   0.15858   0.01267  Uiso   1.00
C118   C     0.71850   0.20440   0.16535   0.01267  Uiso   1.00
C119   C     0.57730   0.07720   0.15564   0.01267  Uiso   1.00
C120   C     0.42840   0.82920   0.12679   0.01267  Uiso   1.00
C121   C     0.64370   0.57880   0.41664   0.01267  Uiso   1.00
C122   C     0.63760   0.43850   0.42623   0.01267  Uiso   1.00
C123   C     0.51200   0.37130   0.44464   0.01267  Uiso   1.00
C124   C     0.75470   0.69760   0.39606   0.01267  Uiso   1.00
C125   C     0.44280   0.21990   0.46144   0.01267  Uiso   1.00
C126   C     0.03870   0.61930   0.47222   0.01267  Uiso   1.00
C127   C     0.02680   0.75390   0.46603   0.01267  Uiso   1.00
C128   C     0.89970   0.76940   0.47580   0.01267  Uiso   1.00
C129   C     0.78410   0.64750   0.49191   0.01267  Uiso   1.00
C130   C     0.79560   0.51410   0.49868   0.01267  Uiso   1.00
C131   C     0.92280   0.50010   0.48897   0.01267  Uiso   1.00
C132   C     0.17080   0.59920   0.46012   0.01267  Uiso   1.00
C133   C     0.42120   0.06490   0.74997   0.01267  Uiso   1.00
C134   C     0.56150   0.19910   0.75956   0.01267  Uiso   1.00
C135   C     0.62870   0.14070   0.77797   0.01267  Uiso   1.00
C136   C     0.30240   0.05710   0.72939   0.01267  Uiso   1.00
C137   C     0.78010   0.22290   0.79477   0.01267  Uiso   1.00
C138   C     0.38070   0.41940   0.80555   0.01267  Uiso   1.00
C139   C     0.24610   0.27290   0.79936   0.01267  Uiso   1.00
C140   C     0.23060   0.13030   0.80913   0.01267  Uiso   1.00
C141   C     0.35250   0.13660   0.82524   0.01267  Uiso   1.00
C142   C     0.48590   0.28150   0.83201   0.01267  Uiso   1.00
C143   C     0.49990   0.42270   0.82230   0.01267  Uiso   1.00
C144   C     0.40080   0.57160   0.79345   0.01267  Uiso   1.00
C145   C     0.63000   0.26000   0.08333   0.01267  Uiso   1.00
C146   C     0.63000   0.37000   0.75000   0.01267  Uiso   1.00
C147   C     0.74000   0.37000   0.41667   0.01267  Uiso   1.00
C148   C     0.37000   0.74000   0.58333   0.01267  Uiso   1.00
C149   C     0.37000   0.63000   0.25000   0.01267  Uiso   1.00
C150   C     0.26000   0.63000   0.91667   0.01267  Uiso   1.00
N1     N     0.40340   0.47230   0.07131   0.01267  Uiso   1.00
N2     N     0.53300   0.55230   0.05430   0.01267  Uiso   1.00
N3     N     0.06890   0.59660   0.73798   0.01267  Uiso   1.00
N4     N     0.01930   0.46700   0.72097   0.01267  Uiso   1.00
N5     N     0.52770   0.93110   0.40464   0.01267  Uiso   1.00
N6     N     0.44770   0.98070   0.38763   0.01267  Uiso   1.00
N7     N     0.59660   0.52770   0.57131   0.01267  Uiso   1.00
N8     N     0.46700   0.44770   0.55430   0.01267  Uiso   1.00
N9     N     0.93110   0.40340   0.23798   0.01267  Uiso   1.00
N10    N     0.98070   0.53300   0.22097   0.01267  Uiso   1.00
N11    N     0.47230   0.06890   0.90464   0.01267  Uiso   1.00
N12    N     0.55230   0.01930   0.88763   0.01267  Uiso   1.00
N13    N     0.93110   0.52770   0.59536   0.01267  Uiso   1.00
N14    N     0.98070   0.44770   0.61237   0.01267  Uiso   1.00
N15    N     0.47230   0.40340   0.92869   0.01267  Uiso   1.00
N16    N     0.55230   0.53300   0.94570   0.01267  Uiso   1.00
N17    N     0.59660   0.06890   0.26202   0.01267  Uiso   1.00
N18    N     0.46700   0.01930   0.27903   0.01267  Uiso   1.00
N19    N     0.06890   0.47230   0.09536   0.01267  Uiso   1.00
N20    N     0.01930   0.55230   0.11237   0.01267  Uiso   1.00
N21    N     0.52770   0.59660   0.42869   0.01267  Uiso   1.00
N22    N     0.44770   0.46700   0.44570   0.01267  Uiso   1.00
N23    N     0.40340   0.93110   0.76202   0.01267  Uiso   1.00
N24    N     0.53300   0.98070   0.77903   0.01267  Uiso   1.00
O1     O     0.28370   0.72989   0.05525   0.01267  Uiso   1.00
O2     O     0.52200   0.81980   0.03492   0.01267  Uiso   1.00
O3     O     0.44619   0.71630   0.72192   0.01267  Uiso   1.00
O4     O     0.29780   0.47800   0.70159   0.01267  Uiso   1.00
O5     O     0.27011   0.55381   0.38858   0.01267  Uiso   1.00
O6     O     0.18020   0.70220   0.36825   0.01267  Uiso   1.00
O7     O     0.71630   0.27011   0.55525   0.01267  Uiso   1.00
O8     O     0.47800   0.18020   0.53492   0.01267  Uiso   1.00
O9     O     0.55381   0.28370   0.22192   0.01267  Uiso   1.00
O10    O     0.70220   0.52200   0.20159   0.01267  Uiso   1.00
O11    O     0.72989   0.44619   0.88858   0.01267  Uiso   1.00
O12    O     0.81980   0.29780   0.86825   0.01267  Uiso   1.00
O13    O     0.55381   0.27011   0.61142   0.01267  Uiso   1.00
O14    O     0.70220   0.18020   0.63175   0.01267  Uiso   1.00
O15    O     0.72989   0.28370   0.94475   0.01267  Uiso   1.00
O16    O     0.81980   0.52200   0.96508   0.01267  Uiso   1.00
O17    O     0.71630   0.44619   0.27808   0.01267  Uiso   1.00
O18    O     0.47800   0.29780   0.29841   0.01267  Uiso   1.00
O19    O     0.44619   0.72989   0.11142   0.01267  Uiso   1.00
O20    O     0.29780   0.81980   0.13175   0.01267  Uiso   1.00
O21    O     0.27011   0.71630   0.44475   0.01267  Uiso   1.00
O22    O     0.18020   0.47800   0.46508   0.01267  Uiso   1.00
O23    O     0.28370   0.55381   0.77808   0.01267  Uiso   1.00
O24    O     0.52200   0.70220   0.79841   0.01267  Uiso   1.00
O25    O     0.35540   0.35540   0.00000   0.01267  Uiso   1.00
O26    O     0.00000   0.64460   0.66667   0.01267  Uiso   1.00
O27    O     0.64460   0.00000   0.33333   0.01267  Uiso   1.00
O28    O     0.64460   0.64460   0.50000   0.01267  Uiso   1.00
O29    O     0.00000   0.35540   0.16667   0.01267  Uiso   1.00
O30    O     0.35540  -0.00000   0.83333   0.01267  Uiso   1.00
