data_XALMOO_clean
_audit_creation_date              2014-07-02
_audit_creation_method            'Materials Studio'
_symmetry_space_group_name_H-M    'P1'
_symmetry_Int_Tables_number       1
_symmetry_cell_setting            triclinic
loop_
_symmetry_equiv_pos_as_xyz
  x,y,z
_cell_length_a                    23.3940
_cell_length_b                    23.3940
_cell_length_c                    29.7791
_cell_angle_alpha                 66.8716
_cell_angle_beta                  66.8716
_cell_angle_gamma                 90.0000
loop_
_atom_site_label
_atom_site_type_symbol
_atom_site_fract_x
_atom_site_fract_y
_atom_site_fract_z
_atom_site_U_iso_or_equiv
_atom_site_adp_type
_atom_site_occupancy
Co1    Co    0.47859   0.96100   0.16368   0.01267  Uiso   1.00
Co2    Co    0.35773   0.87532   0.16368   0.01267  Uiso   1.00
Co3    Co    0.71100   0.60773   0.66368   0.01267  Uiso   1.00
Co4    Co    0.62532   0.72859   0.66368   0.01267  Uiso   1.00
Co5    Co    0.85773   0.46100   0.16368   0.01267  Uiso   1.00
Co6    Co    0.97859   0.37532   0.16368   0.01267  Uiso   1.00
Co7    Co    0.12532   0.10773   0.66368   0.01267  Uiso   1.00
Co8    Co    0.21100   0.22859   0.66368   0.01267  Uiso   1.00
H1     H     0.47380   0.93290   0.09140   0.01267  Uiso   1.00
H2     H     0.54400   0.89250   0.23800   0.01267  Uiso   1.00
H3     H     0.59070   0.91190   0.28420   0.01267  Uiso   1.00
H4     H     0.53980   0.08360   0.24900   0.01267  Uiso   1.00
H5     H     0.50050   0.06160   0.19600   0.01267  Uiso   1.00
H6     H     0.57730   0.92930   0.36460   0.01267  Uiso   1.00
H7     H     0.63730   0.10610   0.25200   0.01267  Uiso   1.00
H8     H     0.55670   0.87180   0.44840   0.01267  Uiso   1.00
H9     H     0.55650   0.80210   0.52860   0.01267  Uiso   1.00
H10    H     0.69390   0.91840   0.51140   0.01267  Uiso   1.00
H11    H     0.70700   0.98420   0.42440   0.01267  Uiso   1.00
H12    H     0.84530   0.20330   0.27920   0.01267  Uiso   1.00
H13    H     0.77470   0.10950   0.31760   0.01267  Uiso   1.00
H14    H     0.66660   0.20050   0.24580   0.01267  Uiso   1.00
H15    H     0.73280   0.29290   0.20720   0.01267  Uiso   1.00
H16    H     0.43480   0.97570   0.09140   0.01267  Uiso   1.00
H17    H     0.21800   0.86950   0.23800   0.01267  Uiso   1.00
H18    H     0.12510   0.80390   0.28420   0.01267  Uiso   1.00
H19    H     0.21120   0.66740   0.24900   0.01267  Uiso   1.00
H20    H     0.30350   0.74240   0.19600   0.01267  Uiso   1.00
H21    H     0.05810   0.70610   0.36460   0.01267  Uiso   1.00
H22    H     0.11070   0.64190   0.25200   0.01267  Uiso   1.00
H23    H     0.99490   0.67980   0.44840   0.01267  Uiso   1.00
H24    H     0.91490   0.66930   0.52860   0.01267  Uiso   1.00
H25    H     0.79470   0.57020   0.51140   0.01267  Uiso   1.00
H26    H     0.86860   0.59140   0.42440   0.01267  Uiso   1.00
H27    H     0.87550   0.51750   0.27920   0.01267  Uiso   1.00
H28    H     0.90770   0.57290   0.31760   0.01267  Uiso   1.00
H29    H     0.08760   0.55370   0.24580   0.01267  Uiso   1.00
H30    H     0.06000   0.49990   0.20720   0.01267  Uiso   1.00
H31    H     0.68290   0.68480   0.59140   0.01267  Uiso   1.00
H32    H     0.64250   0.46800   0.73800   0.01267  Uiso   1.00
H33    H     0.66190   0.37510   0.78420   0.01267  Uiso   1.00
H34    H     0.83360   0.46120   0.74900   0.01267  Uiso   1.00
H35    H     0.81160   0.55350   0.69600   0.01267  Uiso   1.00
H36    H     0.67930   0.30810   0.86460   0.01267  Uiso   1.00
H37    H     0.85610   0.36070   0.75200   0.01267  Uiso   1.00
H38    H     0.62180   0.24490   0.94840   0.01267  Uiso   1.00
H39    H     0.55210   0.16490   0.02860   0.01267  Uiso   1.00
H40    H     0.66840   0.04470   0.01140   0.01267  Uiso   1.00
H41    H     0.73420   0.11860   0.92440   0.01267  Uiso   1.00
H42    H     0.95330   0.12550   0.77920   0.01267  Uiso   1.00
H43    H     0.85950   0.15770   0.81760   0.01267  Uiso   1.00
H44    H     0.95050   0.33760   0.74580   0.01267  Uiso   1.00
H45    H     0.04290   0.31000   0.70720   0.01267  Uiso   1.00
H46    H     0.72570   0.72380   0.59140   0.01267  Uiso   1.00
H47    H     0.61950   0.79400   0.73800   0.01267  Uiso   1.00
H48    H     0.55390   0.84070   0.78420   0.01267  Uiso   1.00
H49    H     0.41740   0.78980   0.74900   0.01267  Uiso   1.00
H50    H     0.49240   0.75050   0.69600   0.01267  Uiso   1.00
H51    H     0.45610   0.82730   0.86460   0.01267  Uiso   1.00
H52    H     0.39190   0.88730   0.75200   0.01267  Uiso   1.00
H53    H     0.42980   0.80670   0.94840   0.01267  Uiso   1.00
H54    H     0.41930   0.80650   0.02860   0.01267  Uiso   1.00
H55    H     0.32020   0.94390   0.01140   0.01267  Uiso   1.00
H56    H     0.34140   0.95700   0.92440   0.01267  Uiso   1.00
H57    H     0.26750   0.09530   0.77920   0.01267  Uiso   1.00
H58    H     0.32290   0.02470   0.81760   0.01267  Uiso   1.00
H59    H     0.30370   0.91660   0.74580   0.01267  Uiso   1.00
H60    H     0.24990   0.98280   0.70720   0.01267  Uiso   1.00
H61    H     0.93480   0.43290   0.09140   0.01267  Uiso   1.00
H62    H     0.71800   0.39250   0.23800   0.01267  Uiso   1.00
H63    H     0.62510   0.41190   0.28420   0.01267  Uiso   1.00
H64    H     0.71120   0.58360   0.24900   0.01267  Uiso   1.00
H65    H     0.80350   0.56160   0.19600   0.01267  Uiso   1.00
H66    H     0.55810   0.42930   0.36460   0.01267  Uiso   1.00
H67    H     0.61070   0.60610   0.25200   0.01267  Uiso   1.00
H68    H     0.49490   0.37180   0.44840   0.01267  Uiso   1.00
H69    H     0.41490   0.30210   0.52860   0.01267  Uiso   1.00
H70    H     0.29470   0.41840   0.51140   0.01267  Uiso   1.00
H71    H     0.36860   0.48420   0.42440   0.01267  Uiso   1.00
H72    H     0.37550   0.70330   0.27920   0.01267  Uiso   1.00
H73    H     0.40770   0.60950   0.31760   0.01267  Uiso   1.00
H74    H     0.58760   0.70050   0.24580   0.01267  Uiso   1.00
H75    H     0.56000   0.79290   0.20720   0.01267  Uiso   1.00
H76    H     0.97380   0.47570   0.09140   0.01267  Uiso   1.00
H77    H     0.04400   0.36950   0.23800   0.01267  Uiso   1.00
H78    H     0.09070   0.30390   0.28420   0.01267  Uiso   1.00
H79    H     0.03980   0.16740   0.24900   0.01267  Uiso   1.00
H80    H     0.00050   0.24240   0.19600   0.01267  Uiso   1.00
H81    H     0.07730   0.20610   0.36460   0.01267  Uiso   1.00
H82    H     0.13730   0.14190   0.25200   0.01267  Uiso   1.00
H83    H     0.05670   0.17980   0.44840   0.01267  Uiso   1.00
H84    H     0.05650   0.16930   0.52860   0.01267  Uiso   1.00
H85    H     0.19390   0.07020   0.51140   0.01267  Uiso   1.00
H86    H     0.20700   0.09140   0.42440   0.01267  Uiso   1.00
H87    H     0.34530   0.01750   0.27920   0.01267  Uiso   1.00
H88    H     0.27470   0.07290   0.31760   0.01267  Uiso   1.00
H89    H     0.16660   0.05370   0.24580   0.01267  Uiso   1.00
H90    H     0.23280   0.99990   0.20720   0.01267  Uiso   1.00
H91    H     0.22570   0.18480   0.59140   0.01267  Uiso   1.00
H92    H     0.11950   0.96800   0.73800   0.01267  Uiso   1.00
H93    H     0.05390   0.87510   0.78420   0.01267  Uiso   1.00
H94    H     0.91740   0.96120   0.74900   0.01267  Uiso   1.00
H95    H     0.99240   0.05350   0.69600   0.01267  Uiso   1.00
H96    H     0.95610   0.80810   0.86460   0.01267  Uiso   1.00
H97    H     0.89190   0.86070   0.75200   0.01267  Uiso   1.00
H98    H     0.92980   0.74490   0.94840   0.01267  Uiso   1.00
H99    H     0.91930   0.66490   0.02860   0.01267  Uiso   1.00
H100   H     0.82020   0.54470   0.01140   0.01267  Uiso   1.00
H101   H     0.84140   0.61860   0.92440   0.01267  Uiso   1.00
H102   H     0.76750   0.62550   0.77920   0.01267  Uiso   1.00
H103   H     0.82290   0.65770   0.81760   0.01267  Uiso   1.00
H104   H     0.80370   0.83760   0.74580   0.01267  Uiso   1.00
H105   H     0.74990   0.81000   0.70720   0.01267  Uiso   1.00
H106   H     0.18290   0.22380   0.59140   0.01267  Uiso   1.00
H107   H     0.14250   0.29400   0.73800   0.01267  Uiso   1.00
H108   H     0.16190   0.34070   0.78420   0.01267  Uiso   1.00
H109   H     0.33360   0.28980   0.74900   0.01267  Uiso   1.00
H110   H     0.31160   0.25050   0.69600   0.01267  Uiso   1.00
H111   H     0.17930   0.32730   0.86460   0.01267  Uiso   1.00
H112   H     0.35610   0.38730   0.75200   0.01267  Uiso   1.00
H113   H     0.12180   0.30670   0.94840   0.01267  Uiso   1.00
H114   H     0.05210   0.30650   0.02860   0.01267  Uiso   1.00
H115   H     0.16840   0.44390   0.01140   0.01267  Uiso   1.00
H116   H     0.23420   0.45700   0.92440   0.01267  Uiso   1.00
H117   H     0.45330   0.59530   0.77920   0.01267  Uiso   1.00
H118   H     0.35950   0.52470   0.81760   0.01267  Uiso   1.00
H119   H     0.45050   0.41660   0.74580   0.01267  Uiso   1.00
H120   H     0.54290   0.48280   0.70720   0.01267  Uiso   1.00
C1     C     0.54397   0.93213   0.23992   0.01267  Uiso   1.00
C2     C     0.57051   0.94306   0.26744   0.01267  Uiso   1.00
C3     C     0.56980   0.00131   0.27304   0.01267  Uiso   1.00
C4     C     0.54221   0.04416   0.24678   0.01267  Uiso   1.00
C5     C     0.51729   0.02979   0.21614   0.01267  Uiso   1.00
C6     C     0.63034   0.98330   0.37684   0.01267  Uiso   1.00
C7     C     0.60065   0.97049   0.35020   0.01267  Uiso   1.00
C8     C     0.60375   0.01592   0.30296   0.01267  Uiso   1.00
C9     C     0.63703   0.07310   0.28340   0.01267  Uiso   1.00
C10    C     0.67058   0.08465   0.30808   0.01267  Uiso   1.00
C11    C     0.62876   0.93745   0.42842   0.01267  Uiso   1.00
C12    C     0.58629   0.88198   0.45992   0.01267  Uiso   1.00
C13    C     0.58585   0.84072   0.50800   0.01267  Uiso   1.00
C14    C     0.62573   0.85333   0.52674   0.01267  Uiso   1.00
C15    C     0.66767   0.90783   0.49716   0.01267  Uiso   1.00
C16    C     0.67347   0.94875   0.44674   0.01267  Uiso   1.00
C17    C     0.62302   0.80830   0.57922   0.01267  Uiso   1.00
C18    C     0.80856   0.20320   0.27284   0.01267  Uiso   1.00
C19    C     0.76699   0.14756   0.29510   0.01267  Uiso   1.00
C20    C     0.71347   0.14618   0.28494   0.01267  Uiso   1.00
C21    C     0.70301   0.20143   0.25254   0.01267  Uiso   1.00
C22    C     0.74150   0.25600   0.23030   0.01267  Uiso   1.00
C23    C     0.79612   0.26071   0.24022   0.01267  Uiso   1.00
C24    C     0.84016   0.31975   0.21470   0.01267  Uiso   1.00
C25    C     0.21611   0.82795   0.23992   0.01267  Uiso   1.00
C26    C     0.16205   0.78950   0.26744   0.01267  Uiso   1.00
C27    C     0.15716   0.72565   0.27304   0.01267  Uiso   1.00
C28    C     0.21101   0.70906   0.24678   0.01267  Uiso   1.00
C29    C     0.26657   0.75407   0.21614   0.01267  Uiso   1.00
C30    C     0.99282   0.63986   0.37684   0.01267  Uiso   1.00
C31    C     0.04915   0.67931   0.35020   0.01267  Uiso   1.00
C32    C     0.09329   0.68112   0.30296   0.01267  Uiso   1.00
C33    C     0.07957   0.64350   0.28340   0.01267  Uiso   1.00
C34    C     0.02134   0.60727   0.30808   0.01267  Uiso   1.00
C35    C     0.94282   0.63413   0.42842   0.01267  Uiso   1.00
C36    C     0.95379   0.65810   0.45992   0.01267  Uiso   1.00
C37    C     0.90615   0.65128   0.50800   0.01267  Uiso   1.00
C38    C     0.84753   0.61993   0.52674   0.01267  Uiso   1.00
C39    C     0.83517   0.59501   0.49716   0.01267  Uiso   1.00
C40    C     0.87979   0.60451   0.44674   0.01267  Uiso   1.00
C41    C     0.79776   0.61248   0.57922   0.01267  Uiso   1.00
C42    C     0.91860   0.52396   0.27284   0.01267  Uiso   1.00
C43    C     0.93791   0.55734   0.29510   0.01267  Uiso   1.00
C44    C     0.00159   0.56888   0.28494   0.01267  Uiso   1.00
C45    C     0.04445   0.54603   0.25254   0.01267  Uiso   1.00
C46    C     0.02820   0.51370   0.23030   0.01267  Uiso   1.00
C47    C     0.96366   0.49907   0.24022   0.01267  Uiso   1.00
C48    C     0.94514   0.46555   0.21470   0.01267  Uiso   1.00
C49    C     0.68213   0.46611   0.73992   0.01267  Uiso   1.00
C50    C     0.69306   0.41205   0.76744   0.01267  Uiso   1.00
C51    C     0.75131   0.40716   0.77304   0.01267  Uiso   1.00
C52    C     0.79416   0.46101   0.74678   0.01267  Uiso   1.00
C53    C     0.77979   0.51657   0.71614   0.01267  Uiso   1.00
C54    C     0.73330   0.24282   0.87684   0.01267  Uiso   1.00
C55    C     0.72049   0.29915   0.85020   0.01267  Uiso   1.00
C56    C     0.76592   0.34329   0.80296   0.01267  Uiso   1.00
C57    C     0.82310   0.32957   0.78340   0.01267  Uiso   1.00
C58    C     0.83465   0.27134   0.80808   0.01267  Uiso   1.00
C59    C     0.68745   0.19282   0.92842   0.01267  Uiso   1.00
C60    C     0.63198   0.20379   0.95992   0.01267  Uiso   1.00
C61    C     0.59072   0.15615   0.00800   0.01267  Uiso   1.00
C62    C     0.60333   0.09753   0.02674   0.01267  Uiso   1.00
C63    C     0.65783   0.08517   0.99716   0.01267  Uiso   1.00
C64    C     0.69875   0.12979   0.94674   0.01267  Uiso   1.00
C65    C     0.55830   0.04776   0.07922   0.01267  Uiso   1.00
C66    C     0.95320   0.16860   0.77284   0.01267  Uiso   1.00
C67    C     0.89756   0.18791   0.79510   0.01267  Uiso   1.00
C68    C     0.89618   0.25159   0.78494   0.01267  Uiso   1.00
C69    C     0.95143   0.29445   0.75254   0.01267  Uiso   1.00
C70    C     0.00600   0.27820   0.73030   0.01267  Uiso   1.00
C71    C     0.01071   0.21366   0.74022   0.01267  Uiso   1.00
C72    C     0.06975   0.19514   0.71470   0.01267  Uiso   1.00
C73    C     0.57795   0.79397   0.73992   0.01267  Uiso   1.00
C74    C     0.53950   0.82051   0.76744   0.01267  Uiso   1.00
C75    C     0.47565   0.81980   0.77304   0.01267  Uiso   1.00
C76    C     0.45906   0.79221   0.74678   0.01267  Uiso   1.00
C77    C     0.50407   0.76729   0.71614   0.01267  Uiso   1.00
C78    C     0.38986   0.88034   0.87684   0.01267  Uiso   1.00
C79    C     0.42931   0.85065   0.85020   0.01267  Uiso   1.00
C80    C     0.43112   0.85375   0.80296   0.01267  Uiso   1.00
C81    C     0.39350   0.88703   0.78340   0.01267  Uiso   1.00
C82    C     0.35727   0.92058   0.80808   0.01267  Uiso   1.00
C83    C     0.38413   0.87876   0.92842   0.01267  Uiso   1.00
C84    C     0.40810   0.83629   0.95992   0.01267  Uiso   1.00
C85    C     0.40128   0.83585   0.00800   0.01267  Uiso   1.00
C86    C     0.36993   0.87573   0.02674   0.01267  Uiso   1.00
C87    C     0.34501   0.91767   0.99716   0.01267  Uiso   1.00
C88    C     0.35451   0.92347   0.94674   0.01267  Uiso   1.00
C89    C     0.36248   0.87302   0.07922   0.01267  Uiso   1.00
C90    C     0.27396   0.05856   0.77284   0.01267  Uiso   1.00
C91    C     0.30734   0.01699   0.79510   0.01267  Uiso   1.00
C92    C     0.31888   0.96347   0.78494   0.01267  Uiso   1.00
C93    C     0.29603   0.95301   0.75254   0.01267  Uiso   1.00
C94    C     0.26370   0.99150   0.73030   0.01267  Uiso   1.00
C95    C     0.24907   0.04612   0.74022   0.01267  Uiso   1.00
C96    C     0.21555   0.09016   0.71470   0.01267  Uiso   1.00
C97    C     0.71611   0.43213   0.23992   0.01267  Uiso   1.00
C98    C     0.66205   0.44306   0.26744   0.01267  Uiso   1.00
C99    C     0.65716   0.50131   0.27304   0.01267  Uiso   1.00
C100   C     0.71101   0.54416   0.24678   0.01267  Uiso   1.00
C101   C     0.76657   0.52979   0.21614   0.01267  Uiso   1.00
C102   C     0.49282   0.48330   0.37684   0.01267  Uiso   1.00
C103   C     0.54915   0.47049   0.35020   0.01267  Uiso   1.00
C104   C     0.59329   0.51592   0.30296   0.01267  Uiso   1.00
C105   C     0.57957   0.57310   0.28340   0.01267  Uiso   1.00
C106   C     0.52134   0.58465   0.30808   0.01267  Uiso   1.00
C107   C     0.44282   0.43745   0.42842   0.01267  Uiso   1.00
C108   C     0.45379   0.38198   0.45992   0.01267  Uiso   1.00
C109   C     0.40615   0.34072   0.50800   0.01267  Uiso   1.00
C110   C     0.34753   0.35333   0.52674   0.01267  Uiso   1.00
C111   C     0.33517   0.40783   0.49716   0.01267  Uiso   1.00
C112   C     0.37979   0.44875   0.44674   0.01267  Uiso   1.00
C113   C     0.29776   0.30830   0.57922   0.01267  Uiso   1.00
C114   C     0.41860   0.70320   0.27284   0.01267  Uiso   1.00
C115   C     0.43791   0.64756   0.29510   0.01267  Uiso   1.00
C116   C     0.50159   0.64618   0.28494   0.01267  Uiso   1.00
C117   C     0.54445   0.70143   0.25254   0.01267  Uiso   1.00
C118   C     0.52820   0.75600   0.23030   0.01267  Uiso   1.00
C119   C     0.46366   0.76071   0.24022   0.01267  Uiso   1.00
C120   C     0.44514   0.81975   0.21470   0.01267  Uiso   1.00
C121   C     0.04397   0.32795   0.23992   0.01267  Uiso   1.00
C122   C     0.07051   0.28950   0.26744   0.01267  Uiso   1.00
C123   C     0.06980   0.22565   0.27304   0.01267  Uiso   1.00
C124   C     0.04221   0.20906   0.24678   0.01267  Uiso   1.00
C125   C     0.01729   0.25407   0.21614   0.01267  Uiso   1.00
C126   C     0.13034   0.13986   0.37684   0.01267  Uiso   1.00
C127   C     0.10065   0.17931   0.35020   0.01267  Uiso   1.00
C128   C     0.10375   0.18112   0.30296   0.01267  Uiso   1.00
C129   C     0.13703   0.14350   0.28340   0.01267  Uiso   1.00
C130   C     0.17058   0.10727   0.30808   0.01267  Uiso   1.00
C131   C     0.12876   0.13413   0.42842   0.01267  Uiso   1.00
C132   C     0.08629   0.15810   0.45992   0.01267  Uiso   1.00
C133   C     0.08585   0.15128   0.50800   0.01267  Uiso   1.00
C134   C     0.12573   0.11993   0.52674   0.01267  Uiso   1.00
C135   C     0.16767   0.09501   0.49716   0.01267  Uiso   1.00
C136   C     0.17347   0.10451   0.44674   0.01267  Uiso   1.00
C137   C     0.12302   0.11248   0.57922   0.01267  Uiso   1.00
C138   C     0.30856   0.02396   0.27284   0.01267  Uiso   1.00
C139   C     0.26699   0.05734   0.29510   0.01267  Uiso   1.00
C140   C     0.21347   0.06888   0.28494   0.01267  Uiso   1.00
C141   C     0.20301   0.04603   0.25254   0.01267  Uiso   1.00
C142   C     0.24150   0.01370   0.23030   0.01267  Uiso   1.00
C143   C     0.29612   0.99907   0.24022   0.01267  Uiso   1.00
C144   C     0.34016   0.96555   0.21470   0.01267  Uiso   1.00
C145   C     0.07795   0.96611   0.73992   0.01267  Uiso   1.00
C146   C     0.03950   0.91205   0.76744   0.01267  Uiso   1.00
C147   C     0.97565   0.90716   0.77304   0.01267  Uiso   1.00
C148   C     0.95906   0.96101   0.74678   0.01267  Uiso   1.00
C149   C     0.00407   0.01657   0.71614   0.01267  Uiso   1.00
C150   C     0.88986   0.74282   0.87684   0.01267  Uiso   1.00
C151   C     0.92931   0.79915   0.85020   0.01267  Uiso   1.00
C152   C     0.93112   0.84329   0.80296   0.01267  Uiso   1.00
C153   C     0.89350   0.82957   0.78340   0.01267  Uiso   1.00
C154   C     0.85727   0.77134   0.80808   0.01267  Uiso   1.00
C155   C     0.88413   0.69282   0.92842   0.01267  Uiso   1.00
C156   C     0.90810   0.70379   0.95992   0.01267  Uiso   1.00
C157   C     0.90128   0.65615   0.00800   0.01267  Uiso   1.00
C158   C     0.86993   0.59753   0.02674   0.01267  Uiso   1.00
C159   C     0.84501   0.58517   0.99716   0.01267  Uiso   1.00
C160   C     0.85451   0.62979   0.94674   0.01267  Uiso   1.00
C161   C     0.86248   0.54776   0.07922   0.01267  Uiso   1.00
C162   C     0.77396   0.66860   0.77284   0.01267  Uiso   1.00
C163   C     0.80734   0.68791   0.79510   0.01267  Uiso   1.00
C164   C     0.81888   0.75159   0.78494   0.01267  Uiso   1.00
C165   C     0.79603   0.79445   0.75254   0.01267  Uiso   1.00
C166   C     0.76370   0.77820   0.73030   0.01267  Uiso   1.00
C167   C     0.74907   0.71366   0.74022   0.01267  Uiso   1.00
C168   C     0.71555   0.69514   0.71470   0.01267  Uiso   1.00
C169   C     0.18213   0.29397   0.73992   0.01267  Uiso   1.00
C170   C     0.19306   0.32051   0.76744   0.01267  Uiso   1.00
C171   C     0.25131   0.31980   0.77304   0.01267  Uiso   1.00
C172   C     0.29416   0.29221   0.74678   0.01267  Uiso   1.00
C173   C     0.27979   0.26729   0.71614   0.01267  Uiso   1.00
C174   C     0.23330   0.38034   0.87684   0.01267  Uiso   1.00
C175   C     0.22049   0.35065   0.85020   0.01267  Uiso   1.00
C176   C     0.26592   0.35375   0.80296   0.01267  Uiso   1.00
C177   C     0.32310   0.38703   0.78340   0.01267  Uiso   1.00
C178   C     0.33465   0.42058   0.80808   0.01267  Uiso   1.00
C179   C     0.18745   0.37876   0.92842   0.01267  Uiso   1.00
C180   C     0.13198   0.33629   0.95992   0.01267  Uiso   1.00
C181   C     0.09072   0.33585   0.00800   0.01267  Uiso   1.00
C182   C     0.10333   0.37573   0.02674   0.01267  Uiso   1.00
C183   C     0.15783   0.41767   0.99716   0.01267  Uiso   1.00
C184   C     0.19875   0.42347   0.94674   0.01267  Uiso   1.00
C185   C     0.05830   0.37302   0.07922   0.01267  Uiso   1.00
C186   C     0.45320   0.55856   0.77284   0.01267  Uiso   1.00
C187   C     0.39756   0.51699   0.79510   0.01267  Uiso   1.00
C188   C     0.39618   0.46347   0.78494   0.01267  Uiso   1.00
C189   C     0.45143   0.45301   0.75254   0.01267  Uiso   1.00
C190   C     0.50600   0.49150   0.73030   0.01267  Uiso   1.00
C191   C     0.51071   0.54612   0.74022   0.01267  Uiso   1.00
C192   C     0.56975   0.59016   0.71470   0.01267  Uiso   1.00
N1     N     0.51547   0.97689   0.21336   0.01267  Uiso   1.00
N2     N     0.66715   0.04082   0.35582   0.01267  Uiso   1.00
N3     N     0.27117   0.80975   0.21336   0.01267  Uiso   1.00
N4     N     0.97703   0.60336   0.35582   0.01267  Uiso   1.00
N5     N     0.72689   0.52117   0.71336   0.01267  Uiso   1.00
N6     N     0.79082   0.22703   0.85582   0.01267  Uiso   1.00
N7     N     0.55975   0.76547   0.71336   0.01267  Uiso   1.00
N8     N     0.35336   0.91715   0.85582   0.01267  Uiso   1.00
N9     N     0.77117   0.47689   0.21336   0.01267  Uiso   1.00
N10    N     0.47703   0.54082   0.35582   0.01267  Uiso   1.00
N11    N     0.01547   0.30975   0.21336   0.01267  Uiso   1.00
N12    N     0.16715   0.10336   0.35582   0.01267  Uiso   1.00
N13    N     0.05975   0.02117   0.71336   0.01267  Uiso   1.00
N14    N     0.85336   0.72703   0.85582   0.01267  Uiso   1.00
N15    N     0.22689   0.26547   0.71336   0.01267  Uiso   1.00
N16    N     0.29082   0.41715   0.85582   0.01267  Uiso   1.00
O1     O     0.58429   0.75601   0.60740   0.01267  Uiso   1.00
O2     O     0.66150   0.82141   0.59640   0.01267  Uiso   1.00
O3     O     0.89456   0.31807   0.21450   0.01267  Uiso   1.00
O4     O     0.81991   0.36902   0.19536   0.01267  Uiso   1.00
O5     O     0.80831   0.63659   0.60740   0.01267  Uiso   1.00
O6     O     0.74210   0.58219   0.59640   0.01267  Uiso   1.00
O7     O     0.89094   0.46743   0.21450   0.01267  Uiso   1.00
O8     O     0.98473   0.43562   0.19536   0.01267  Uiso   1.00
O9     O     0.50601   0.05831   0.10740   0.01267  Uiso   1.00
O10    O     0.57141   0.99210   0.09640   0.01267  Uiso   1.00
O11    O     0.06807   0.14094   0.71450   0.01267  Uiso   1.00
O12    O     0.11902   0.23473   0.69536   0.01267  Uiso   1.00
O13    O     0.38659   0.83429   0.10740   0.01267  Uiso   1.00
O14    O     0.33219   0.91150   0.09640   0.01267  Uiso   1.00
O15    O     0.21743   0.14456   0.71450   0.01267  Uiso   1.00
O16    O     0.18562   0.06991   0.69536   0.01267  Uiso   1.00
O17    O     0.30831   0.25601   0.60740   0.01267  Uiso   1.00
O18    O     0.24210   0.32141   0.59640   0.01267  Uiso   1.00
O19    O     0.39094   0.81807   0.21450   0.01267  Uiso   1.00
O20    O     0.48473   0.86902   0.19536   0.01267  Uiso   1.00
O21    O     0.08429   0.13659   0.60740   0.01267  Uiso   1.00
O22    O     0.16150   0.08219   0.59640   0.01267  Uiso   1.00
O23    O     0.39456   0.96743   0.21450   0.01267  Uiso   1.00
O24    O     0.31991   0.93562   0.19536   0.01267  Uiso   1.00
O25    O     0.88659   0.55831   0.10740   0.01267  Uiso   1.00
O26    O     0.83219   0.49210   0.09640   0.01267  Uiso   1.00
O27    O     0.71743   0.64094   0.71450   0.01267  Uiso   1.00
O28    O     0.68562   0.73473   0.69536   0.01267  Uiso   1.00
O29    O     0.00601   0.33429   0.10740   0.01267  Uiso   1.00
O30    O     0.07141   0.41150   0.09640   0.01267  Uiso   1.00
O31    O     0.56807   0.64456   0.71450   0.01267  Uiso   1.00
O32    O     0.61902   0.56991   0.69536   0.01267  Uiso   1.00
O33    O     0.44395   0.94395   0.11210   0.01267  Uiso   1.00
O34    O     0.69395   0.69395   0.61210   0.01267  Uiso   1.00
O35    O     0.94395   0.44395   0.11210   0.01267  Uiso   1.00
O36    O     0.19395   0.19395   0.61210   0.01267  Uiso   1.00
