data_XECBUD_clean
_audit_creation_date              2014-07-02
_audit_creation_method            'Materials Studio'
_symmetry_space_group_name_H-M    'P1'
_symmetry_Int_Tables_number       1
_symmetry_cell_setting            triclinic
loop_
_symmetry_equiv_pos_as_xyz
  x,y,z
_cell_length_a                    11.5580
_cell_length_b                    11.6170
_cell_length_c                    11.8410
_cell_angle_alpha                 64.1100
_cell_angle_beta                  81.0570
_cell_angle_gamma                 72.6900
loop_
_atom_site_label
_atom_site_type_symbol
_atom_site_fract_x
_atom_site_fract_y
_atom_site_fract_z
_atom_site_U_iso_or_equiv
_atom_site_adp_type
_atom_site_occupancy
Zn1    Zn    0.00000   0.00000   0.50000   0.01267  Uiso   1.00
Zn2    Zn    0.00000   0.00000   0.00000   0.01267  Uiso   1.00
Zn3    Zn    0.00000   0.50000   0.50000   0.01267  Uiso   1.00
H1     H     0.78100   0.00060   0.68850   0.01267  Uiso   1.00
H2     H     0.63980   0.39880   0.36800   0.01267  Uiso   1.00
H3     H     0.83200   0.27670   0.36490   0.01267  Uiso   1.00
H4     H     0.58430   0.11410   0.69930   0.01267  Uiso   1.00
H5     H     0.44450   0.45280   0.34310   0.01267  Uiso   1.00
H6     H     0.41640   0.26460   0.71650   0.01267  Uiso   1.00
H7     H     0.95850   0.33390   0.81730   0.01267  Uiso   1.00
H8     H     0.21350   0.36240   0.70380   0.01267  Uiso   1.00
H9     H     0.23970   0.53810   0.34150   0.01267  Uiso   1.00
H10    H     0.21900   0.99940   0.31150   0.01267  Uiso   1.00
H11    H     0.36020   0.60120   0.63200   0.01267  Uiso   1.00
H12    H     0.16800   0.72330   0.63510   0.01267  Uiso   1.00
H13    H     0.41570   0.88590   0.30070   0.01267  Uiso   1.00
H14    H     0.55550   0.54720   0.65690   0.01267  Uiso   1.00
H15    H     0.58360   0.73540   0.28350   0.01267  Uiso   1.00
H16    H     0.04150   0.66610   0.18270   0.01267  Uiso   1.00
H17    H     0.78650   0.63760   0.29620   0.01267  Uiso   1.00
H18    H     0.76030   0.46190   0.65850   0.01267  Uiso   1.00
C1     C     0.96080   0.03260   0.23330   0.01267  Uiso   1.00
C2     C     0.02000   0.11210   0.73090   0.01267  Uiso   1.00
C3     C     0.75120   0.08130   0.62210   0.01267  Uiso   1.00
C4     C     0.45590   0.34070   0.53080   0.01267  Uiso   1.00
C5     C     0.58550   0.27180   0.53260   0.01267  Uiso   1.00
C6     C     0.66550   0.31670   0.43440   0.01267  Uiso   1.00
C7     C     0.78120   0.24300   0.43320   0.01267  Uiso   1.00
C8     C     0.63290   0.14950   0.62950   0.01267  Uiso   1.00
C9     C     0.39910   0.42910   0.41800   0.01267  Uiso   1.00
C10    C     0.38260   0.31890   0.63820   0.01267  Uiso   1.00
C11    C     0.97840   0.28100   0.77310   0.01267  Uiso   1.00
C12    C     0.02290   0.22190   0.62140   0.01267  Uiso   1.00
C13    C     0.05150   0.24610   0.48610   0.01267  Uiso   1.00
C14    C     0.26030   0.37720   0.62990   0.01267  Uiso   1.00
C15    C     0.27590   0.48080   0.41800   0.01267  Uiso   1.00
C16    C     0.03920   0.96740   0.76670   0.01267  Uiso   1.00
C17    C     0.98000   0.88790   0.26910   0.01267  Uiso   1.00
C18    C     0.24880   0.91870   0.37790   0.01267  Uiso   1.00
C19    C     0.54410   0.65930   0.46920   0.01267  Uiso   1.00
C20    C     0.41450   0.72820   0.46740   0.01267  Uiso   1.00
C21    C     0.33450   0.68330   0.56560   0.01267  Uiso   1.00
C22    C     0.21880   0.75700   0.56680   0.01267  Uiso   1.00
C23    C     0.36710   0.85050   0.37050   0.01267  Uiso   1.00
C24    C     0.60090   0.57090   0.58200   0.01267  Uiso   1.00
C25    C     0.61740   0.68110   0.36180   0.01267  Uiso   1.00
C26    C     0.02160   0.71900   0.22690   0.01267  Uiso   1.00
C27    C     0.97710   0.77810   0.37860   0.01267  Uiso   1.00
C28    C     0.94850   0.75390   0.51390   0.01267  Uiso   1.00
C29    C     0.73970   0.62280   0.37010   0.01267  Uiso   1.00
C30    C     0.72410   0.51920   0.58200   0.01267  Uiso   1.00
N1     N     0.99130   0.15290   0.82830   0.01267  Uiso   1.00
N2     N     0.82550   0.12540   0.52410   0.01267  Uiso   1.00
N3     N     0.99570   0.32960   0.65000   0.01267  Uiso   1.00
N4     N     0.20550   0.45370   0.52110   0.01267  Uiso   1.00
N5     N     0.00870   0.84710   0.17170   0.01267  Uiso   1.00
N6     N     0.17450   0.87460   0.47590   0.01267  Uiso   1.00
N7     N     0.00430   0.67040   0.35000   0.01267  Uiso   1.00
N8     N     0.79450   0.54630   0.47890   0.01267  Uiso   1.00
O1     O     0.96070   0.07760   0.31030   0.01267  Uiso   1.00
O2     O     0.94920   0.10450   0.11690   0.01267  Uiso   1.00
O3     O     0.08250   0.15250   0.45360   0.01267  Uiso   1.00
O4     O     0.04680   0.36390   0.41270   0.01267  Uiso   1.00
O5     O     0.03930   0.92240   0.68970   0.01267  Uiso   1.00
O6     O     0.05080   0.89550   0.88310   0.01267  Uiso   1.00
O7     O     0.91750   0.84750   0.54640   0.01267  Uiso   1.00
O8     O     0.95320   0.63610   0.58730   0.01267  Uiso   1.00
