data_XECJUK_clean5b
_audit_creation_date              2014-07-02
_audit_creation_method            'Materials Studio'
_symmetry_space_group_name_H-M    'P1'
_symmetry_Int_Tables_number       1
_symmetry_cell_setting            triclinic
loop_
_symmetry_equiv_pos_as_xyz
  x,y,z
_cell_length_a                    6.2380
_cell_length_b                    9.4180
_cell_length_c                    10.5910
_cell_angle_alpha                 73.5800
_cell_angle_beta                  80.5200
_cell_angle_gamma                 75.0100
loop_
_atom_site_label
_atom_site_type_symbol
_atom_site_fract_x
_atom_site_fract_y
_atom_site_fract_z
_atom_site_U_iso_or_equiv
_atom_site_adp_type
_atom_site_occupancy
Sr1    Sr    0.73702   0.10530   0.35988   0.01267  Uiso   1.00
Sr2    Sr    0.26298   0.89470   0.64012   0.01267  Uiso   1.00
H1     H     0.17000   0.52000   0.64000   0.01267  Uiso   1.00
H2     H     0.83000   0.86000   0.93000   0.01267  Uiso   1.00
H3     H     0.83000   0.48000   0.36000   0.01267  Uiso   1.00
H4     H     0.17000   0.14000   0.07000   0.01267  Uiso   1.00
C1     C     0.30490   0.51400   0.57220   0.01267  Uiso   1.00
C2     C     0.39010   0.39100   0.51690   0.01267  Uiso   1.00
C3     C     0.26200   0.26830   0.53840   0.01267  Uiso   1.00
C4     C     0.89870   0.92170   0.95190   0.01267  Uiso   1.00
C5     C     0.82210   0.95570   0.07250   0.01267  Uiso   1.00
C6     C     0.61840   0.90590   0.15440   0.01267  Uiso   1.00
C7     C     0.69510   0.48600   0.42780   0.01267  Uiso   1.00
C8     C     0.60990   0.60900   0.48310   0.01267  Uiso   1.00
C9     C     0.73800   0.73170   0.46160   0.01267  Uiso   1.00
C10    C     0.10130   0.07830   0.04810   0.01267  Uiso   1.00
C11    C     0.17790   0.04430   0.92750   0.01267  Uiso   1.00
C12    C     0.38160   0.09410   0.84560   0.01267  Uiso   1.00
N1     N     0.58700   0.37690   0.44390   0.01267  Uiso   1.00
N2     N     0.92310   0.03490   0.12110   0.01267  Uiso   1.00
N3     N     0.41300   0.62310   0.55610   0.01267  Uiso   1.00
N4     N     0.07690   0.96510   0.87890   0.01267  Uiso   1.00
O1     O     0.34820   0.15940   0.48530   0.01267  Uiso   1.00
O2     O     0.08000   0.28370   0.60830   0.01267  Uiso   1.00
O3     O     0.52520   0.97390   0.24000   0.01267  Uiso   1.00
O4     O     0.56310   0.80070   0.12690   0.01267  Uiso   1.00
O5     O     0.65180   0.84060   0.51470   0.01267  Uiso   1.00
O6     O     0.92000   0.71630   0.39170   0.01267  Uiso   1.00
O7     O     0.47480   0.02610   0.76000   0.01267  Uiso   1.00
O8     O     0.43690   0.19930   0.87310   0.01267  Uiso   1.00
