data_XEJVOZ_clean
_audit_creation_date              2014-07-02
_audit_creation_method            'Materials Studio'
_symmetry_space_group_name_H-M    'P1'
_symmetry_Int_Tables_number       1
_symmetry_cell_setting            triclinic
loop_
_symmetry_equiv_pos_as_xyz
  x,y,z
_cell_length_a                    9.5354
_cell_length_b                    16.3932
_cell_length_c                    16.3932
_cell_angle_alpha                 63.6655
_cell_angle_beta                  78.8202
_cell_angle_gamma                 101.1800
loop_
_atom_site_label
_atom_site_type_symbol
_atom_site_fract_x
_atom_site_fract_y
_atom_site_fract_z
_atom_site_U_iso_or_equiv
_atom_site_adp_type
_atom_site_occupancy
Sr1    Sr    0.12848   0.12898   0.28861   0.01267  Uiso   1.00
Sr2    Sr    0.77127   0.94556   0.58573   0.01267  Uiso   1.00
Sr3    Sr    0.41709   0.28861   0.58241   0.01267  Uiso   1.00
Sr4    Sr    0.35700   0.58573   0.46871   0.01267  Uiso   1.00
Sr5    Sr    0.99950   0.58241   0.12898   0.01267  Uiso   1.00
Sr6    Sr    0.82571   0.46871   0.94556   0.01267  Uiso   1.00
Sr7    Sr    0.91709   0.41759   0.71139   0.01267  Uiso   1.00
Sr8    Sr    0.85700   0.53129   0.41427   0.01267  Uiso   1.00
Sr9    Sr    0.49950   0.87102   0.41759   0.01267  Uiso   1.00
Sr10   Sr    0.32571   0.05444   0.53129   0.01267  Uiso   1.00
Sr11   Sr    0.62848   0.71139   0.87102   0.01267  Uiso   1.00
Sr12   Sr    0.27127   0.41427   0.05444   0.01267  Uiso   1.00
H1     H     0.72750   0.37520   0.21320   0.01267  Uiso   1.00
H2     H     0.70100   0.06600   0.18900   0.01267  Uiso   1.00
H3     H     0.46550   0.27160   0.31030   0.01267  Uiso   1.00
H4     H     0.89730   0.21580   0.07690   0.01267  Uiso   1.00
H5     H     0.94070   0.21320   0.41160   0.01267  Uiso   1.00
H6     H     0.89000   0.18900   0.74500   0.01267  Uiso   1.00
H7     H     0.77580   0.31030   0.41810   0.01267  Uiso   1.00
H8     H     0.97420   0.07690   0.70730   0.01267  Uiso   1.00
H9     H     0.35230   0.41160   0.37520   0.01267  Uiso   1.00
H10    H     0.63500   0.74500   0.06600   0.01267  Uiso   1.00
H11    H     0.19390   0.41810   0.27160   0.01267  Uiso   1.00
H12    H     0.68150   0.70730   0.21580   0.01267  Uiso   1.00
H13    H     0.44070   0.58840   0.78680   0.01267  Uiso   1.00
H14    H     0.39000   0.25500   0.81100   0.01267  Uiso   1.00
H15    H     0.27580   0.58190   0.68970   0.01267  Uiso   1.00
H16    H     0.47420   0.29270   0.92310   0.01267  Uiso   1.00
H17    H     0.85230   0.62480   0.58840   0.01267  Uiso   1.00
H18    H     0.13500   0.93400   0.25500   0.01267  Uiso   1.00
H19    H     0.69390   0.72840   0.58190   0.01267  Uiso   1.00
H20    H     0.18150   0.78420   0.29270   0.01267  Uiso   1.00
H21    H     0.22750   0.78680   0.62480   0.01267  Uiso   1.00
H22    H     0.20100   0.81100   0.93400   0.01267  Uiso   1.00
H23    H     0.96550   0.68970   0.72840   0.01267  Uiso   1.00
H24    H     0.39730   0.92310   0.78420   0.01267  Uiso   1.00
C1     C     0.55250   0.25380   0.30960   0.01267  Uiso   1.00
C2     C     0.70390   0.17120   0.34010   0.01267  Uiso   1.00
C3     C     0.79100   0.26450   0.26990   0.01267  Uiso   1.00
C4     C     0.74730   0.08440   0.39310   0.01267  Uiso   1.00
C5     C     0.95530   0.31700   0.21710   0.01267  Uiso   1.00
C6     C     0.79450   0.20660   0.09650   0.01267  Uiso   1.00
C7     C     0.55060   0.13350   0.16800   0.01267  Uiso   1.00
C8     C     0.58100   0.23220   0.11160   0.01267  Uiso   1.00
C9     C     0.41150   0.04880   0.22550   0.01267  Uiso   1.00
C10    C     0.48320   0.29430   0.09810   0.01267  Uiso   1.00
C11    C     0.86210   0.30960   0.43660   0.01267  Uiso   1.00
C12    C     0.04400   0.34010   0.48870   0.01267  Uiso   1.00
C13    C     0.06090   0.26990   0.46560   0.01267  Uiso   1.00
C14    C     0.14040   0.39310   0.52250   0.01267  Uiso   1.00
C15    C     0.17240   0.21710   0.46590   0.01267  Uiso   1.00
C16    C     0.89100   0.09650   0.69690   0.01267  Uiso   1.00
C17    C     0.71860   0.16800   0.69850   0.01267  Uiso   1.00
C18    C     0.69260   0.11160   0.65620   0.01267  Uiso   1.00
C19    C     0.63700   0.22550   0.72570   0.01267  Uiso   1.00
C20    C     0.58130   0.09810   0.60760   0.01267  Uiso   1.00
C21    C     0.29870   0.43660   0.25380   0.01267  Uiso   1.00
C22    C     0.53270   0.48870   0.17120   0.01267  Uiso   1.00
C23    C     0.52650   0.46560   0.26450   0.01267  Uiso   1.00
C24    C     0.66290   0.52250   0.08440   0.01267  Uiso   1.00
C25    C     0.63830   0.46590   0.31700   0.01267  Uiso   1.00
C26    C     0.58790   0.69690   0.20660   0.01267  Uiso   1.00
C27    C     0.41710   0.69850   0.13350   0.01267  Uiso   1.00
C28    C     0.34880   0.65620   0.23220   0.01267  Uiso   1.00
C29    C     0.36270   0.72570   0.04880   0.01267  Uiso   1.00
C30    C     0.18890   0.60760   0.29430   0.01267  Uiso   1.00
C31    C     0.36210   0.56340   0.69040   0.01267  Uiso   1.00
C32    C     0.54400   0.51130   0.65990   0.01267  Uiso   1.00
C33    C     0.56090   0.53440   0.73010   0.01267  Uiso   1.00
C34    C     0.64040   0.47750   0.60690   0.01267  Uiso   1.00
C35    C     0.67240   0.53410   0.78290   0.01267  Uiso   1.00
C36    C     0.39100   0.30310   0.90350   0.01267  Uiso   1.00
C37    C     0.21860   0.30150   0.83200   0.01267  Uiso   1.00
C38    C     0.19260   0.34380   0.88840   0.01267  Uiso   1.00
C39    C     0.13700   0.27430   0.77450   0.01267  Uiso   1.00
C40    C     0.08130   0.39240   0.90190   0.01267  Uiso   1.00
C41    C     0.79870   0.74620   0.56340   0.01267  Uiso   1.00
C42    C     0.03270   0.82880   0.51130   0.01267  Uiso   1.00
C43    C     0.02650   0.73550   0.53440   0.01267  Uiso   1.00
C44    C     0.16290   0.91560   0.47750   0.01267  Uiso   1.00
C45    C     0.13830   0.68300   0.53410   0.01267  Uiso   1.00
C46    C     0.08790   0.79340   0.30310   0.01267  Uiso   1.00
C47    C     0.91710   0.86650   0.30150   0.01267  Uiso   1.00
C48    C     0.84880   0.76780   0.34380   0.01267  Uiso   1.00
C49    C     0.86270   0.95120   0.27430   0.01267  Uiso   1.00
C50    C     0.68890   0.70570   0.39240   0.01267  Uiso   1.00
C51    C     0.05250   0.69040   0.74620   0.01267  Uiso   1.00
C52    C     0.20390   0.65990   0.82880   0.01267  Uiso   1.00
C53    C     0.29100   0.73010   0.73550   0.01267  Uiso   1.00
C54    C     0.24730   0.60690   0.91560   0.01267  Uiso   1.00
C55    C     0.45530   0.78290   0.68300   0.01267  Uiso   1.00
C56    C     0.29450   0.90350   0.79340   0.01267  Uiso   1.00
C57    C     0.05060   0.83200   0.86650   0.01267  Uiso   1.00
C58    C     0.08100   0.88840   0.76780   0.01267  Uiso   1.00
C59    C     0.91150   0.77450   0.95120   0.01267  Uiso   1.00
C60    C     0.98320   0.90190   0.70570   0.01267  Uiso   1.00
N1     N     0.55400   0.16660   0.36340   0.01267  Uiso   1.00
N2     N     0.69130   0.31450   0.25360   0.01267  Uiso   1.00
N3     N     0.68920   0.12020   0.15830   0.01267  Uiso   1.00
N4     N     0.73410   0.27670   0.06700   0.01267  Uiso   1.00
N5     N     0.91740   0.36340   0.47000   0.01267  Uiso   1.00
N6     N     0.94490   0.25360   0.43190   0.01267  Uiso   1.00
N7     N     0.84750   0.15830   0.72150   0.01267  Uiso   1.00
N8     N     0.80110   0.06700   0.65630   0.01267  Uiso   1.00
N9     N     0.38740   0.47000   0.16660   0.01267  Uiso   1.00
N10    N     0.37680   0.43190   0.31450   0.01267  Uiso   1.00
N11    N     0.56900   0.72150   0.12020   0.01267  Uiso   1.00
N12    N     0.45740   0.65630   0.27670   0.01267  Uiso   1.00
N13    N     0.41740   0.53000   0.63660   0.01267  Uiso   1.00
N14    N     0.44490   0.56810   0.74640   0.01267  Uiso   1.00
N15    N     0.34750   0.27850   0.84170   0.01267  Uiso   1.00
N16    N     0.30110   0.34370   0.93300   0.01267  Uiso   1.00
N17    N     0.88740   0.83340   0.53000   0.01267  Uiso   1.00
N18    N     0.87680   0.68550   0.56810   0.01267  Uiso   1.00
N19    N     0.06900   0.87980   0.27850   0.01267  Uiso   1.00
N20    N     0.95740   0.72330   0.34370   0.01267  Uiso   1.00
N21    N     0.05400   0.63660   0.83340   0.01267  Uiso   1.00
N22    N     0.19130   0.74640   0.68550   0.01267  Uiso   1.00
N23    N     0.18920   0.84170   0.87980   0.01267  Uiso   1.00
N24    N     0.23410   0.93300   0.72330   0.01267  Uiso   1.00
O1     O     0.87445   0.09698   0.40733   0.01267  Uiso   1.00
O2     O     0.65700   0.00357   0.42567   0.01267  Uiso   1.00
O3     O     0.04190   0.27067   0.20587   0.01267  Uiso   1.00
O4     O     0.99903   0.40485   0.18456   0.01267  Uiso   1.00
O5     O     0.28811   0.05839   0.21496   0.01267  Uiso   1.00
O6     O     0.42780   0.97030   0.28020   0.01267  Uiso   1.00
O7     O     0.35149   0.26359   0.15562   0.01267  Uiso   1.00
O8     O     0.53959   0.37937   0.03020   0.01267  Uiso   1.00
O9     O     0.28178   0.40733   0.49569   0.01267  Uiso   1.00
O10    O     0.08267   0.42567   0.57076   0.01267  Uiso   1.00
O11    O     0.24777   0.20587   0.52346   0.01267  Uiso   1.00
O12    O     0.18359   0.18456   0.41059   0.01267  Uiso   1.00
O13    O     0.50307   0.21496   0.72665   0.01267  Uiso   1.00
O14    O     0.70800   0.28020   0.74950   0.01267  Uiso   1.00
O15    O     0.50711   0.15562   0.58079   0.01267  Uiso   1.00
O16    O     0.56979   0.03020   0.59043   0.01267  Uiso   1.00
O17    O     0.77747   0.49569   0.09698   0.01267  Uiso   1.00
O18    O     0.65343   0.57076   0.00357   0.01267  Uiso   1.00
O19    O     0.77123   0.52346   0.27067   0.01267  Uiso   1.00
O20    O     0.59418   0.41059   0.40485   0.01267  Uiso   1.00
O21    O     0.22972   0.72665   0.05839   0.01267  Uiso   1.00
O22    O     0.45750   0.74950   0.97030   0.01267  Uiso   1.00
O23    O     0.08790   0.58079   0.26359   0.01267  Uiso   1.00
O24    O     0.16022   0.59043   0.37937   0.01267  Uiso   1.00
O25    O     0.78178   0.50431   0.59267   0.01267  Uiso   1.00
O26    O     0.58267   0.42924   0.57433   0.01267  Uiso   1.00
O27    O     0.74777   0.47654   0.79413   0.01267  Uiso   1.00
O28    O     0.68359   0.58941   0.81544   0.01267  Uiso   1.00
O29    O     0.00307   0.27335   0.78504   0.01267  Uiso   1.00
O30    O     0.20800   0.25050   0.71980   0.01267  Uiso   1.00
O31    O     0.00711   0.41921   0.84438   0.01267  Uiso   1.00
O32    O     0.06979   0.40957   0.96980   0.01267  Uiso   1.00
O33    O     0.27747   0.90302   0.50431   0.01267  Uiso   1.00
O34    O     0.15343   0.99643   0.42924   0.01267  Uiso   1.00
O35    O     0.27123   0.72933   0.47654   0.01267  Uiso   1.00
O36    O     0.09418   0.59515   0.58941   0.01267  Uiso   1.00
O37    O     0.72972   0.94161   0.27335   0.01267  Uiso   1.00
O38    O     0.95750   0.02970   0.25050   0.01267  Uiso   1.00
O39    O     0.58790   0.73641   0.41921   0.01267  Uiso   1.00
O40    O     0.66022   0.62063   0.40957   0.01267  Uiso   1.00
O41    O     0.37445   0.59267   0.90302   0.01267  Uiso   1.00
O42    O     0.15700   0.57433   0.99643   0.01267  Uiso   1.00
O43    O     0.54190   0.79413   0.72933   0.01267  Uiso   1.00
O44    O     0.49903   0.81544   0.59515   0.01267  Uiso   1.00
O45    O     0.78811   0.78504   0.94161   0.01267  Uiso   1.00
O46    O     0.92780   0.71980   0.02970   0.01267  Uiso   1.00
O47    O     0.85149   0.84438   0.73641   0.01267  Uiso   1.00
O48    O     0.03959   0.96980   0.62063   0.01267  Uiso   1.00
