data_XEQGEH_clean
_audit_creation_date              2014-07-02
_audit_creation_method            'Materials Studio'
_symmetry_space_group_name_H-M    'P1'
_symmetry_Int_Tables_number       1
_symmetry_cell_setting            triclinic
loop_
_symmetry_equiv_pos_as_xyz
  x,y,z
_cell_length_a                    11.9720
_cell_length_b                    12.0430
_cell_length_c                    27.7920
_cell_angle_alpha                 90.0000
_cell_angle_beta                  99.9590
_cell_angle_gamma                 90.0000
loop_
_atom_site_label
_atom_site_type_symbol
_atom_site_fract_x
_atom_site_fract_y
_atom_site_fract_z
_atom_site_U_iso_or_equiv
_atom_site_adp_type
_atom_site_occupancy
Zn1    Zn    0.76598   0.45787   0.45122   0.01267  Uiso   1.00
Zn2    Zn    0.26598   0.04213   0.95122   0.01267  Uiso   1.00
H1     H     0.94520   0.58480   0.39340   0.01267  Uiso   1.00
H2     H     0.34870   0.09210   0.75900   0.01267  Uiso   1.00
H3     H     0.41270   0.02340   0.69200   0.01267  Uiso   1.00
H4     H     0.58960   0.07360   0.67560   0.01267  Uiso   1.00
H5     H     0.63830   0.26370   0.79540   0.01267  Uiso   1.00
H6     H     0.46250   0.21160   0.81230   0.01267  Uiso   1.00
H7     H     0.92660   0.31800   0.75080   0.01267  Uiso   1.00
H8     H     0.07520   0.29680   0.81570   0.01267  Uiso   1.00
H9     H     0.93350   0.02580   0.85640   0.01267  Uiso   1.00
H10    H     0.77290   0.05090   0.79600   0.01267  Uiso   1.00
H11    H     0.90580   0.15190   0.68050   0.01267  Uiso   1.00
H12    H     0.92850   0.19890   0.60270   0.01267  Uiso   1.00
H13    H     0.64630   0.38280   0.58730   0.01267  Uiso   1.00
H14    H     0.62010   0.33150   0.66470   0.01267  Uiso   1.00
H15    H     0.58790   0.64530   0.44090   0.01267  Uiso   1.00
H16    H     0.82500   0.87690   0.46730   0.01267  Uiso   1.00
H17    H     0.91610   0.69560   0.47140   0.01267  Uiso   1.00
H18    H     0.46700   0.78500   0.47160   0.01267  Uiso   1.00
H19    H     0.32810   0.91810   0.45870   0.01267  Uiso   1.00
H20    H     0.53470   0.12240   0.40210   0.01267  Uiso   1.00
H21    H     0.67740   0.98960   0.41470   0.01267  Uiso   1.00
H22    H     0.19250   0.01400   0.40300   0.01267  Uiso   1.00
H23    H     0.05060   0.14700   0.39380   0.01267  Uiso   1.00
H24    H     0.28250   0.38770   0.42650   0.01267  Uiso   1.00
H25    H     0.42630   0.25510   0.43380   0.01267  Uiso   1.00
H26    H     0.95030   0.28040   0.44170   0.01267  Uiso   1.00
H27    H     0.11800   0.49840   0.37490   0.01267  Uiso   1.00
H28    H     0.44520   0.91520   0.89340   0.01267  Uiso   1.00
H29    H     0.84870   0.40790   0.25900   0.01267  Uiso   1.00
H30    H     0.91270   0.47660   0.19200   0.01267  Uiso   1.00
H31    H     0.08960   0.42640   0.17560   0.01267  Uiso   1.00
H32    H     0.13830   0.23630   0.29540   0.01267  Uiso   1.00
H33    H     0.96250   0.28840   0.31230   0.01267  Uiso   1.00
H34    H     0.42660   0.18200   0.25080   0.01267  Uiso   1.00
H35    H     0.57520   0.20320   0.31570   0.01267  Uiso   1.00
H36    H     0.43350   0.47420   0.35640   0.01267  Uiso   1.00
H37    H     0.27290   0.44910   0.29600   0.01267  Uiso   1.00
H38    H     0.40580   0.34810   0.18050   0.01267  Uiso   1.00
H39    H     0.42850   0.30110   0.10270   0.01267  Uiso   1.00
H40    H     0.14630   0.11720   0.08730   0.01267  Uiso   1.00
H41    H     0.12010   0.16850   0.16470   0.01267  Uiso   1.00
H42    H     0.08790   0.85470   0.94090   0.01267  Uiso   1.00
H43    H     0.32500   0.62310   0.96730   0.01267  Uiso   1.00
H44    H     0.41610   0.80440   0.97140   0.01267  Uiso   1.00
H45    H     0.96700   0.71500   0.97160   0.01267  Uiso   1.00
H46    H     0.82810   0.58190   0.95870   0.01267  Uiso   1.00
H47    H     0.03470   0.37760   0.90210   0.01267  Uiso   1.00
H48    H     0.17740   0.51040   0.91470   0.01267  Uiso   1.00
H49    H     0.69250   0.48600   0.90300   0.01267  Uiso   1.00
H50    H     0.55060   0.35300   0.89380   0.01267  Uiso   1.00
H51    H     0.78250   0.11230   0.92650   0.01267  Uiso   1.00
H52    H     0.92630   0.24490   0.93380   0.01267  Uiso   1.00
H53    H     0.45030   0.21960   0.94170   0.01267  Uiso   1.00
H54    H     0.61800   0.00160   0.87490   0.01267  Uiso   1.00
C1     C     0.96820   0.51230   0.40112   0.01267  Uiso   1.00
C2     C     0.41990   0.11240   0.75300   0.01267  Uiso   1.00
C3     C     0.45820   0.07180   0.71290   0.01267  Uiso   1.00
C4     C     0.56390   0.10140   0.70290   0.01267  Uiso   1.00
C5     C     0.63140   0.17450   0.73530   0.01267  Uiso   1.00
C6     C     0.59320   0.21470   0.77460   0.01267  Uiso   1.00
C7     C     0.48750   0.18430   0.78470   0.01267  Uiso   1.00
C8     C     0.83460   0.18610   0.76582   0.01267  Uiso   1.00
C9     C     0.92570   0.25940   0.77250   0.01267  Uiso   1.00
C10    C     0.01550   0.24630   0.81130   0.01267  Uiso   1.00
C11    C     0.01580   0.15860   0.84310   0.01267  Uiso   1.00
C12    C     0.93030   0.08720   0.83590   0.01267  Uiso   1.00
C13    C     0.83410   0.09940   0.79845   0.01267  Uiso   1.00
C14    C     0.12020   0.14420   0.88440   0.01267  Uiso   1.00
C15    C     0.75910   0.23360   0.68006   0.01267  Uiso   1.00
C16    C     0.85220   0.19680   0.66148   0.01267  Uiso   1.00
C17    C     0.86630   0.22610   0.61492   0.01267  Uiso   1.00
C18    C     0.79020   0.29520   0.58588   0.01267  Uiso   1.00
C19    C     0.69790   0.33500   0.60572   0.01267  Uiso   1.00
C20    C     0.68200   0.30450   0.65220   0.01267  Uiso   1.00
C21    C     0.80690   0.32670   0.53522   0.01267  Uiso   1.00
C22    C     0.65830   0.67980   0.44790   0.01267  Uiso   1.00
C23    C     0.78860   0.80860   0.46244   0.01267  Uiso   1.00
C24    C     0.83830   0.70850   0.46474   0.01267  Uiso   1.00
C25    C     0.58660   0.87390   0.44397   0.01267  Uiso   1.00
C26    C     0.48070   0.85250   0.45749   0.01267  Uiso   1.00
C27    C     0.39800   0.93210   0.44960   0.01267  Uiso   1.00
C28    C     0.41590   0.03380   0.42828   0.01267  Uiso   1.00
C29    C     0.52120   0.05430   0.41580   0.01267  Uiso   1.00
C30    C     0.60720   0.97500   0.42340   0.01267  Uiso   1.00
C31    C     0.32540   0.11950   0.42023   0.01267  Uiso   1.00
C32    C     0.21140   0.08850   0.40781   0.01267  Uiso   1.00
C33    C     0.12610   0.16800   0.40263   0.01267  Uiso   1.00
C34    C     0.15430   0.27860   0.41070   0.01267  Uiso   1.00
C35    C     0.26490   0.31280   0.42194   0.01267  Uiso   1.00
C36    C     0.35090   0.23280   0.42647   0.01267  Uiso   1.00
C37    C     0.97080   0.34590   0.42781   0.01267  Uiso   1.00
C38    C     0.06410   0.46560   0.39078   0.01267  Uiso   1.00
C39    C     0.46820   0.98770   0.90112   0.01267  Uiso   1.00
C40    C     0.91990   0.38760   0.25300   0.01267  Uiso   1.00
C41    C     0.95820   0.42820   0.21290   0.01267  Uiso   1.00
C42    C     0.06390   0.39860   0.20290   0.01267  Uiso   1.00
C43    C     0.13140   0.32550   0.23530   0.01267  Uiso   1.00
C44    C     0.09320   0.28530   0.27460   0.01267  Uiso   1.00
C45    C     0.98750   0.31570   0.28470   0.01267  Uiso   1.00
C46    C     0.33460   0.31390   0.26582   0.01267  Uiso   1.00
C47    C     0.42570   0.24060   0.27250   0.01267  Uiso   1.00
C48    C     0.51550   0.25370   0.31130   0.01267  Uiso   1.00
C49    C     0.51580   0.34140   0.34310   0.01267  Uiso   1.00
C50    C     0.43030   0.41280   0.33590   0.01267  Uiso   1.00
C51    C     0.33410   0.40060   0.29845   0.01267  Uiso   1.00
C52    C     0.62020   0.35580   0.38440   0.01267  Uiso   1.00
C53    C     0.25910   0.26640   0.18006   0.01267  Uiso   1.00
C54    C     0.35220   0.30320   0.16148   0.01267  Uiso   1.00
C55    C     0.36630   0.27390   0.11492   0.01267  Uiso   1.00
C56    C     0.29020   0.20480   0.08588   0.01267  Uiso   1.00
C57    C     0.19790   0.16500   0.10572   0.01267  Uiso   1.00
C58    C     0.18200   0.19550   0.15220   0.01267  Uiso   1.00
C59    C     0.30690   0.17330   0.03522   0.01267  Uiso   1.00
C60    C     0.15830   0.82020   0.94790   0.01267  Uiso   1.00
C61    C     0.28860   0.69140   0.96244   0.01267  Uiso   1.00
C62    C     0.33830   0.79150   0.96474   0.01267  Uiso   1.00
C63    C     0.08660   0.62610   0.94397   0.01267  Uiso   1.00
C64    C     0.98070   0.64750   0.95749   0.01267  Uiso   1.00
C65    C     0.89800   0.56790   0.94960   0.01267  Uiso   1.00
C66    C     0.91590   0.46620   0.92828   0.01267  Uiso   1.00
C67    C     0.02120   0.44570   0.91580   0.01267  Uiso   1.00
C68    C     0.10720   0.52500   0.92340   0.01267  Uiso   1.00
C69    C     0.82540   0.38050   0.92023   0.01267  Uiso   1.00
C70    C     0.71140   0.41150   0.90781   0.01267  Uiso   1.00
C71    C     0.62610   0.33200   0.90263   0.01267  Uiso   1.00
C72    C     0.65430   0.22140   0.91070   0.01267  Uiso   1.00
C73    C     0.76490   0.18720   0.92194   0.01267  Uiso   1.00
C74    C     0.85090   0.26720   0.92647   0.01267  Uiso   1.00
C75    C     0.47080   0.15410   0.92781   0.01267  Uiso   1.00
C76    C     0.56410   0.03440   0.89078   0.01267  Uiso   1.00
N1     N     0.91040   0.43810   0.42438   0.01267  Uiso   1.00
N2     N     0.74320   0.20230   0.72712   0.01267  Uiso   1.00
N3     N     0.75500   0.62720   0.45549   0.01267  Uiso   1.00
N4     N     0.67350   0.79100   0.45157   0.01267  Uiso   1.00
N5     N     0.06460   0.35870   0.40887   0.01267  Uiso   1.00
N6     N     0.41040   0.06190   0.92438   0.01267  Uiso   1.00
N7     N     0.24320   0.29770   0.22712   0.01267  Uiso   1.00
N8     N     0.25500   0.87280   0.95549   0.01267  Uiso   1.00
N9     N     0.17350   0.70900   0.95157   0.01267  Uiso   1.00
N10    N     0.56460   0.14130   0.90887   0.01267  Uiso   1.00
O1     O     0.74550   0.40730   0.51550   0.01267  Uiso   1.00
O2     O     0.87540   0.27570   0.51551   0.01267  Uiso   1.00
O3     O     0.18900   0.21850   0.89430   0.01267  Uiso   1.00
O4     O     0.12100   0.05540   0.90696   0.01267  Uiso   1.00
O5     O     0.24550   0.09270   0.01550   0.01267  Uiso   1.00
O6     O     0.37540   0.22430   0.01551   0.01267  Uiso   1.00
O7     O     0.68900   0.28150   0.39430   0.01267  Uiso   1.00
O8     O     0.62100   0.44460   0.40696   0.01267  Uiso   1.00
Zn3    Zn    0.73402   0.95787   0.04878   0.01267  Uiso   1.00
Zn4    Zn    0.23402   0.54213   0.54878   0.01267  Uiso   1.00
H55    H     0.55480   0.08480   0.10660   0.01267  Uiso   1.00
H56    H     0.15130   0.59210   0.74100   0.01267  Uiso   1.00
H57    H     0.08730   0.52340   0.80800   0.01267  Uiso   1.00
H58    H     0.91040   0.57360   0.82440   0.01267  Uiso   1.00
H59    H     0.86170   0.76370   0.70460   0.01267  Uiso   1.00
H60    H     0.03750   0.71160   0.68770   0.01267  Uiso   1.00
H61    H     0.57340   0.81800   0.74920   0.01267  Uiso   1.00
H62    H     0.42480   0.79680   0.68430   0.01267  Uiso   1.00
H63    H     0.56650   0.52580   0.64360   0.01267  Uiso   1.00
H64    H     0.72710   0.55090   0.70400   0.01267  Uiso   1.00
H65    H     0.59420   0.65190   0.81950   0.01267  Uiso   1.00
H66    H     0.57150   0.69890   0.89730   0.01267  Uiso   1.00
H67    H     0.85370   0.88280   0.91270   0.01267  Uiso   1.00
H68    H     0.87990   0.83150   0.83530   0.01267  Uiso   1.00
H69    H     0.91210   0.14530   0.05910   0.01267  Uiso   1.00
H70    H     0.67500   0.37690   0.03270   0.01267  Uiso   1.00
H71    H     0.58390   0.19560   0.02860   0.01267  Uiso   1.00
H72    H     0.03300   0.28500   0.02840   0.01267  Uiso   1.00
H73    H     0.17190   0.41810   0.04130   0.01267  Uiso   1.00
H74    H     0.96530   0.62240   0.09790   0.01267  Uiso   1.00
H75    H     0.82260   0.48960   0.08530   0.01267  Uiso   1.00
H76    H     0.30750   0.51400   0.09700   0.01267  Uiso   1.00
H77    H     0.44940   0.64700   0.10620   0.01267  Uiso   1.00
H78    H     0.21750   0.88770   0.07350   0.01267  Uiso   1.00
H79    H     0.07370   0.75510   0.06620   0.01267  Uiso   1.00
H80    H     0.54970   0.78040   0.05830   0.01267  Uiso   1.00
H81    H     0.38200   0.99840   0.12510   0.01267  Uiso   1.00
H82    H     0.05480   0.41520   0.60660   0.01267  Uiso   1.00
H83    H     0.65130   0.90790   0.24100   0.01267  Uiso   1.00
H84    H     0.58730   0.97660   0.30800   0.01267  Uiso   1.00
H85    H     0.41040   0.92640   0.32440   0.01267  Uiso   1.00
H86    H     0.36170   0.73630   0.20460   0.01267  Uiso   1.00
H87    H     0.53750   0.78840   0.18770   0.01267  Uiso   1.00
H88    H     0.07340   0.68200   0.24920   0.01267  Uiso   1.00
H89    H     0.92480   0.70320   0.18430   0.01267  Uiso   1.00
H90    H     0.06650   0.97420   0.14360   0.01267  Uiso   1.00
H91    H     0.22710   0.94910   0.20400   0.01267  Uiso   1.00
H92    H     0.09420   0.84810   0.31950   0.01267  Uiso   1.00
H93    H     0.07150   0.80110   0.39730   0.01267  Uiso   1.00
H94    H     0.35370   0.61720   0.41270   0.01267  Uiso   1.00
H95    H     0.37990   0.66850   0.33530   0.01267  Uiso   1.00
H96    H     0.41210   0.35470   0.55910   0.01267  Uiso   1.00
H97    H     0.17500   0.12310   0.53270   0.01267  Uiso   1.00
H98    H     0.08390   0.30440   0.52860   0.01267  Uiso   1.00
H99    H     0.53300   0.21500   0.52840   0.01267  Uiso   1.00
H100   H     0.67190   0.08190   0.54130   0.01267  Uiso   1.00
H101   H     0.46530   0.87760   0.59790   0.01267  Uiso   1.00
H102   H     0.32260   0.01040   0.58530   0.01267  Uiso   1.00
H103   H     0.80750   0.98600   0.59700   0.01267  Uiso   1.00
H104   H     0.94940   0.85300   0.60620   0.01267  Uiso   1.00
H105   H     0.71750   0.61230   0.57350   0.01267  Uiso   1.00
H106   H     0.57370   0.74490   0.56620   0.01267  Uiso   1.00
H107   H     0.04970   0.71960   0.55830   0.01267  Uiso   1.00
H108   H     0.88200   0.50160   0.62510   0.01267  Uiso   1.00
C77    C     0.53180   0.01230   0.09888   0.01267  Uiso   1.00
C78    C     0.08010   0.61240   0.74700   0.01267  Uiso   1.00
C79    C     0.04180   0.57180   0.78710   0.01267  Uiso   1.00
C80    C     0.93610   0.60140   0.79710   0.01267  Uiso   1.00
C81    C     0.86860   0.67450   0.76470   0.01267  Uiso   1.00
C82    C     0.90680   0.71470   0.72540   0.01267  Uiso   1.00
C83    C     0.01250   0.68430   0.71530   0.01267  Uiso   1.00
C84    C     0.66540   0.68610   0.73418   0.01267  Uiso   1.00
C85    C     0.57430   0.75940   0.72750   0.01267  Uiso   1.00
C86    C     0.48450   0.74630   0.68870   0.01267  Uiso   1.00
C87    C     0.48420   0.65860   0.65690   0.01267  Uiso   1.00
C88    C     0.56970   0.58720   0.66410   0.01267  Uiso   1.00
C89    C     0.66590   0.59940   0.70155   0.01267  Uiso   1.00
C90    C     0.37980   0.64420   0.61560   0.01267  Uiso   1.00
C91    C     0.74090   0.73360   0.81994   0.01267  Uiso   1.00
C92    C     0.64780   0.69680   0.83852   0.01267  Uiso   1.00
C93    C     0.63370   0.72610   0.88508   0.01267  Uiso   1.00
C94    C     0.70980   0.79520   0.91412   0.01267  Uiso   1.00
C95    C     0.80210   0.83500   0.89428   0.01267  Uiso   1.00
C96    C     0.81800   0.80450   0.84780   0.01267  Uiso   1.00
C97    C     0.69310   0.82670   0.96478   0.01267  Uiso   1.00
C98    C     0.84170   0.17980   0.05210   0.01267  Uiso   1.00
C99    C     0.71140   0.30860   0.03756   0.01267  Uiso   1.00
C100   C     0.66170   0.20850   0.03526   0.01267  Uiso   1.00
C101   C     0.91340   0.37390   0.05603   0.01267  Uiso   1.00
C102   C     0.01930   0.35250   0.04251   0.01267  Uiso   1.00
C103   C     0.10200   0.43210   0.05040   0.01267  Uiso   1.00
C104   C     0.08410   0.53380   0.07172   0.01267  Uiso   1.00
C105   C     0.97880   0.55430   0.08420   0.01267  Uiso   1.00
C106   C     0.89280   0.47500   0.07660   0.01267  Uiso   1.00
C107   C     0.17460   0.61950   0.07977   0.01267  Uiso   1.00
C108   C     0.28860   0.58850   0.09219   0.01267  Uiso   1.00
C109   C     0.37390   0.66800   0.09737   0.01267  Uiso   1.00
C110   C     0.34570   0.77860   0.08930   0.01267  Uiso   1.00
C111   C     0.23510   0.81280   0.07806   0.01267  Uiso   1.00
C112   C     0.14910   0.73280   0.07353   0.01267  Uiso   1.00
C113   C     0.52920   0.84590   0.07219   0.01267  Uiso   1.00
C114   C     0.43590   0.96560   0.10922   0.01267  Uiso   1.00
C115   C     0.03180   0.48770   0.59888   0.01267  Uiso   1.00
C116   C     0.58010   0.88760   0.24700   0.01267  Uiso   1.00
C117   C     0.54180   0.92820   0.28710   0.01267  Uiso   1.00
C118   C     0.43610   0.89860   0.29710   0.01267  Uiso   1.00
C119   C     0.36860   0.82550   0.26470   0.01267  Uiso   1.00
C120   C     0.40680   0.78530   0.22540   0.01267  Uiso   1.00
C121   C     0.51250   0.81570   0.21530   0.01267  Uiso   1.00
C122   C     0.16540   0.81390   0.23418   0.01267  Uiso   1.00
C123   C     0.07430   0.74060   0.22750   0.01267  Uiso   1.00
C124   C     0.98450   0.75370   0.18870   0.01267  Uiso   1.00
C125   C     0.98420   0.84140   0.15690   0.01267  Uiso   1.00
C126   C     0.06970   0.91280   0.16410   0.01267  Uiso   1.00
C127   C     0.16590   0.90060   0.20155   0.01267  Uiso   1.00
C128   C     0.87980   0.85580   0.11560   0.01267  Uiso   1.00
C129   C     0.24090   0.76640   0.31994   0.01267  Uiso   1.00
C130   C     0.14780   0.80320   0.33852   0.01267  Uiso   1.00
C131   C     0.13370   0.77390   0.38508   0.01267  Uiso   1.00
C132   C     0.20980   0.70480   0.41412   0.01267  Uiso   1.00
C133   C     0.30210   0.66500   0.39428   0.01267  Uiso   1.00
C134   C     0.31800   0.69550   0.34780   0.01267  Uiso   1.00
C135   C     0.19310   0.67330   0.46478   0.01267  Uiso   1.00
C136   C     0.34170   0.32020   0.55210   0.01267  Uiso   1.00
C137   C     0.21140   0.19140   0.53756   0.01267  Uiso   1.00
C138   C     0.16170   0.29150   0.53526   0.01267  Uiso   1.00
C139   C     0.41340   0.12610   0.55603   0.01267  Uiso   1.00
C140   C     0.51930   0.14750   0.54251   0.01267  Uiso   1.00
C141   C     0.60200   0.06790   0.55040   0.01267  Uiso   1.00
C142   C     0.58410   0.96620   0.57172   0.01267  Uiso   1.00
C143   C     0.47880   0.94570   0.58420   0.01267  Uiso   1.00
C144   C     0.39280   0.02500   0.57660   0.01267  Uiso   1.00
C145   C     0.67460   0.88050   0.57977   0.01267  Uiso   1.00
C146   C     0.78860   0.91150   0.59219   0.01267  Uiso   1.00
C147   C     0.87390   0.83200   0.59737   0.01267  Uiso   1.00
C148   C     0.84570   0.72140   0.58930   0.01267  Uiso   1.00
C149   C     0.73510   0.68720   0.57806   0.01267  Uiso   1.00
C150   C     0.64910   0.76720   0.57353   0.01267  Uiso   1.00
C151   C     0.02920   0.65410   0.57219   0.01267  Uiso   1.00
C152   C     0.93590   0.53440   0.60922   0.01267  Uiso   1.00
N11    N     0.58960   0.93810   0.07562   0.01267  Uiso   1.00
N12    N     0.75680   0.70230   0.77288   0.01267  Uiso   1.00
N13    N     0.74500   0.12720   0.04451   0.01267  Uiso   1.00
N14    N     0.82650   0.29100   0.04843   0.01267  Uiso   1.00
N15    N     0.43540   0.85870   0.09113   0.01267  Uiso   1.00
N16    N     0.08960   0.56190   0.57562   0.01267  Uiso   1.00
N17    N     0.25680   0.79770   0.27288   0.01267  Uiso   1.00
N18    N     0.24500   0.37280   0.54451   0.01267  Uiso   1.00
N19    N     0.32650   0.20900   0.54843   0.01267  Uiso   1.00
N20    N     0.93540   0.64130   0.59113   0.01267  Uiso   1.00
O9     O     0.75450   0.90730   0.98450   0.01267  Uiso   1.00
O10    O     0.62460   0.77570   0.98449   0.01267  Uiso   1.00
O11    O     0.31100   0.71850   0.60570   0.01267  Uiso   1.00
O12    O     0.37900   0.55540   0.59304   0.01267  Uiso   1.00
O13    O     0.25450   0.59270   0.48450   0.01267  Uiso   1.00
O14    O     0.12460   0.72430   0.48449   0.01267  Uiso   1.00
O15    O     0.81100   0.78150   0.10570   0.01267  Uiso   1.00
O16    O     0.87900   0.94460   0.09304   0.01267  Uiso   1.00
