data_XESKUD_clean
_audit_creation_date              2014-07-02
_audit_creation_method            'Materials Studio'
_symmetry_space_group_name_H-M    'P1'
_symmetry_Int_Tables_number       1
_symmetry_cell_setting            triclinic
loop_
_symmetry_equiv_pos_as_xyz
  x,y,z
_cell_length_a                    6.4045
_cell_length_b                    16.3121
_cell_length_c                    16.3121
_cell_angle_alpha                 61.6857
_cell_angle_beta                  82.4799
_cell_angle_gamma                 97.5201
loop_
_atom_site_label
_atom_site_type_symbol
_atom_site_fract_x
_atom_site_fract_y
_atom_site_fract_z
_atom_site_U_iso_or_equiv
_atom_site_adp_type
_atom_site_occupancy
Fe1    Fe    0.56310   0.24660   0.42340   0.01267  Uiso   1.00
Fe2    Fe    0.98650   0.42340   0.33000   0.01267  Uiso   1.00
Fe3    Fe    0.31650   0.33000   0.24660   0.01267  Uiso   1.00
Fe4    Fe    0.43690   0.75340   0.57660   0.01267  Uiso   1.00
Fe5    Fe    0.01350   0.57660   0.67000   0.01267  Uiso   1.00
Fe6    Fe    0.68350   0.67000   0.75340   0.01267  Uiso   1.00
P1     P     0.80735   0.34562   0.18777   0.01267  Uiso   1.00
P2     P     0.99512   0.18777   0.46661   0.01267  Uiso   1.00
P3     P     0.46173   0.46661   0.34562   0.01267  Uiso   1.00
P4     P     0.19265   0.65438   0.81223   0.01267  Uiso   1.00
P5     P     0.00488   0.81223   0.53339   0.01267  Uiso   1.00
P6     P     0.53827   0.53339   0.65438   0.01267  Uiso   1.00
C1     C     0.73038   0.45600   0.10426   0.01267  Uiso   1.00
C2     C     0.51119   0.40726   0.01049   0.01267  Uiso   1.00
C3     C     0.37171   0.49973   0.08040   0.01267  Uiso   1.00
C4     C     0.83464   0.10426   0.43974   0.01267  Uiso   1.00
C5     C     0.52168   0.01049   0.58225   0.01267  Uiso   1.00
C6     C     0.45211   0.08040   0.41987   0.01267  Uiso   1.00
C7     C     0.27438   0.43974   0.45600   0.01267  Uiso   1.00
C8     C     0.10393   0.58225   0.40726   0.01267  Uiso   1.00
C9     C     0.87198   0.41987   0.49973   0.01267  Uiso   1.00
C10    C     0.26962   0.54400   0.89574   0.01267  Uiso   1.00
C11    C     0.48881   0.59274   0.98951   0.01267  Uiso   1.00
C12    C     0.62829   0.50027   0.91960   0.01267  Uiso   1.00
C13    C     0.16536   0.89574   0.56026   0.01267  Uiso   1.00
C14    C     0.47832   0.98951   0.41775   0.01267  Uiso   1.00
C15    C     0.54789   0.91960   0.58013   0.01267  Uiso   1.00
C16    C     0.72562   0.56026   0.54400   0.01267  Uiso   1.00
C17    C     0.89607   0.41775   0.59274   0.01267  Uiso   1.00
C18    C     0.12802   0.58013   0.50027   0.01267  Uiso   1.00
N1     N     0.50656   0.42521   0.09453   0.01267  Uiso   1.00
N2     N     0.60109   0.09453   0.48026   0.01267  Uiso   1.00
N3     N     0.08135   0.48026   0.42521   0.01267  Uiso   1.00
N4     N     0.49344   0.57479   0.90547   0.01267  Uiso   1.00
N5     N     0.39891   0.90547   0.51974   0.01267  Uiso   1.00
N6     N     0.91865   0.51974   0.57479   0.01267  Uiso   1.00
O1     O     0.86850   0.29540   0.13620   0.01267  Uiso   1.00
O2     O     0.61910   0.27940   0.27290   0.01267  Uiso   1.00
O3     O     0.98090   0.36540   0.23380   0.01267  Uiso   1.00
O4     O     0.00470   0.13620   0.56840   0.01267  Uiso   1.00
O5     O     0.89200   0.27290   0.44770   0.01267  Uiso   1.00
O6     O     0.21470   0.23380   0.40080   0.01267  Uiso   1.00
O7     O     0.57310   0.56840   0.29540   0.01267  Uiso   1.00
O8     O     0.33970   0.44770   0.27940   0.01267  Uiso   1.00
O9     O     0.61550   0.40080   0.36540   0.01267  Uiso   1.00
O10    O     0.13150   0.70460   0.86380   0.01267  Uiso   1.00
O11    O     0.38090   0.72060   0.72710   0.01267  Uiso   1.00
O12    O     0.01910   0.63460   0.76620   0.01267  Uiso   1.00
O13    O     0.99530   0.86380   0.43160   0.01267  Uiso   1.00
O14    O     0.10800   0.72710   0.55230   0.01267  Uiso   1.00
O15    O     0.78530   0.76620   0.59920   0.01267  Uiso   1.00
O16    O     0.42690   0.43160   0.70460   0.01267  Uiso   1.00
O17    O     0.66030   0.55230   0.72060   0.01267  Uiso   1.00
O18    O     0.38450   0.59920   0.63460   0.01267  Uiso   1.00
