data_XESKOX_clean
_audit_creation_date              2014-07-02
_audit_creation_method            'Materials Studio'
_symmetry_space_group_name_H-M    'P1'
_symmetry_Int_Tables_number       1
_symmetry_cell_setting            triclinic
loop_
_symmetry_equiv_pos_as_xyz
  x,y,z
_cell_length_a                    5.9631
_cell_length_b                    15.1823
_cell_length_c                    15.1823
_cell_angle_alpha                 61.6869
_cell_angle_beta                  82.4772
_cell_angle_gamma                 97.5228
loop_
_atom_site_label
_atom_site_type_symbol
_atom_site_fract_x
_atom_site_fract_y
_atom_site_fract_z
_atom_site_U_iso_or_equiv
_atom_site_adp_type
_atom_site_occupancy
Mn1    Mn    0.54029   0.23986   0.44729   0.01267  Uiso   1.00
Mn2    Mn    0.98758   0.44729   0.31285   0.01267  Uiso   1.00
Mn3    Mn    0.30043   0.31285   0.23986   0.01267  Uiso   1.00
Mn4    Mn    0.45971   0.76014   0.55271   0.01267  Uiso   1.00
Mn5    Mn    0.01242   0.55271   0.68715   0.01267  Uiso   1.00
Mn6    Mn    0.69957   0.68715   0.76014   0.01267  Uiso   1.00
P1     P     0.05110   0.20290   0.48560   0.01267  Uiso   1.00
P2     P     0.53670   0.48560   0.31150   0.01267  Uiso   1.00
P3     P     0.84820   0.31150   0.20290   0.01267  Uiso   1.00
P4     P     0.94890   0.79710   0.51440   0.01267  Uiso   1.00
P5     P     0.46330   0.51440   0.68850   0.01267  Uiso   1.00
P6     P     0.15180   0.68850   0.79710   0.01267  Uiso   1.00
C1     C     0.81570   0.08730   0.57160   0.01267  Uiso   1.00
C2     C     0.74250   0.04380   0.44740   0.01267  Uiso   1.00
C3     C     0.43571   0.98502   0.60309   0.01267  Uiso   1.00
C4     C     0.38730   0.57160   0.34110   0.01267  Uiso   1.00
C5     C     0.18990   0.44740   0.50880   0.01267  Uiso   1.00
C6     C     0.03880   0.60309   0.41189   0.01267  Uiso   1.00
C7     C     0.72840   0.34110   0.08730   0.01267  Uiso   1.00
C8     C     0.69870   0.50880   0.04380   0.01267  Uiso   1.00
C9     C     0.45069   0.41189   0.98502   0.01267  Uiso   1.00
C10    C     0.18430   0.91270   0.42840   0.01267  Uiso   1.00
C11    C     0.25750   0.95620   0.55260   0.01267  Uiso   1.00
C12    C     0.56429   0.01498   0.39691   0.01267  Uiso   1.00
C13    C     0.61270   0.42840   0.65890   0.01267  Uiso   1.00
C14    C     0.81010   0.55260   0.49120   0.01267  Uiso   1.00
C15    C     0.96120   0.39691   0.58811   0.01267  Uiso   1.00
C16    C     0.27160   0.65890   0.91270   0.01267  Uiso   1.00
C17    C     0.30130   0.49120   0.95620   0.01267  Uiso   1.00
C18    C     0.54931   0.58811   0.01498   0.01267  Uiso   1.00
N1     N     0.62160   0.07640   0.51930   0.01267  Uiso   1.00
N2     N     0.14090   0.51930   0.40430   0.01267  Uiso   1.00
N3     N     0.54520   0.40430   0.07640   0.01267  Uiso   1.00
N4     N     0.37840   0.92360   0.48070   0.01267  Uiso   1.00
N5     N     0.85910   0.48070   0.59570   0.01267  Uiso   1.00
N6     N     0.45480   0.59570   0.92360   0.01267  Uiso   1.00
O1     O     0.20390   0.20960   0.55410   0.01267  Uiso   1.00
O2     O     0.92510   0.28990   0.44510   0.01267  Uiso   1.00
O3     O     0.20740   0.18480   0.41200   0.01267  Uiso   1.00
O4     O     0.75800   0.55410   0.23630   0.01267  Uiso   1.00
O5     O     0.37020   0.44510   0.26500   0.01267  Uiso   1.00
O6     O     0.61940   0.41200   0.40320   0.01267  Uiso   1.00
O7     O     0.99430   0.23630   0.20960   0.01267  Uiso   1.00
O8     O     0.63520   0.26500   0.28990   0.01267  Uiso   1.00
O9     O     0.02260   0.40320   0.18480   0.01267  Uiso   1.00
O10    O     0.79610   0.79040   0.44590   0.01267  Uiso   1.00
O11    O     0.07490   0.71010   0.55490   0.01267  Uiso   1.00
O12    O     0.79260   0.81520   0.58800   0.01267  Uiso   1.00
O13    O     0.24200   0.44590   0.76370   0.01267  Uiso   1.00
O14    O     0.62980   0.55490   0.73500   0.01267  Uiso   1.00
O15    O     0.38060   0.58800   0.59680   0.01267  Uiso   1.00
O16    O     0.00570   0.76370   0.79040   0.01267  Uiso   1.00
O17    O     0.36480   0.73500   0.71010   0.01267  Uiso   1.00
O18    O     0.97740   0.59680   0.81520   0.01267  Uiso   1.00
