data_XESKEN_clean_h
_audit_creation_date              2014-07-02
_audit_creation_method            'Materials Studio'
_symmetry_space_group_name_H-M    'P1'
_symmetry_Int_Tables_number       1
_symmetry_cell_setting            triclinic
loop_
_symmetry_equiv_pos_as_xyz
  x,y,z
_cell_length_a                    6.2202
_cell_length_b                    16.4387
_cell_length_c                    16.4387
_cell_angle_alpha                 61.5666
_cell_angle_beta                  82.7540
_cell_angle_gamma                 97.2460
loop_
_atom_site_label
_atom_site_type_symbol
_atom_site_fract_x
_atom_site_fract_y
_atom_site_fract_z
_atom_site_U_iso_or_equiv
_atom_site_adp_type
_atom_site_occupancy
Mg1    Mg    0.45757   0.74951   0.57870   0.01267  Uiso   1.00
Mg2    Mg    0.03627   0.57870   0.67179   0.01267  Uiso   1.00
Mg3    Mg    0.70806   0.67179   0.74951   0.01267  Uiso   1.00
Mg4    Mg    0.54243   0.25049   0.42130   0.01267  Uiso   1.00
Mg5    Mg    0.96373   0.42130   0.32821   0.01267  Uiso   1.00
Mg6    Mg    0.29194   0.32821   0.25049   0.01267  Uiso   1.00
P1     P     0.01147   0.80912   0.53481   0.01267  Uiso   1.00
P2     P     0.54628   0.53481   0.65607   0.01267  Uiso   1.00
P3     P     0.20235   0.65607   0.80912   0.01267  Uiso   1.00
P4     P     0.98853   0.19088   0.46519   0.01267  Uiso   1.00
P5     P     0.45372   0.46519   0.34393   0.01267  Uiso   1.00
P6     P     0.79765   0.34393   0.19088   0.01267  Uiso   1.00
C1     C     0.16098   0.89486   0.56292   0.01267  Uiso   1.00
C2     C     0.52210   0.93940   0.59900   0.01267  Uiso   1.00
C3     C     0.49940   0.95960   0.43710   0.01267  Uiso   1.00
C4     C     0.72390   0.56292   0.54222   0.01267  Uiso   1.00
C5     C     0.12110   0.59900   0.46160   0.01267  Uiso   1.00
C6     C     0.93650   0.43710   0.60330   0.01267  Uiso   1.00
C7     C     0.26612   0.54222   0.89486   0.01267  Uiso   1.00
C8     C     0.58270   0.46160   0.93940   0.01267  Uiso   1.00
C9     C     0.53980   0.60330   0.95960   0.01267  Uiso   1.00
C10    C     0.83902   0.10514   0.43708   0.01267  Uiso   1.00
C11    C     0.47790   0.06060   0.40100   0.01267  Uiso   1.00
C12    C     0.50060   0.04040   0.56290   0.01267  Uiso   1.00
C13    C     0.27610   0.43708   0.45778   0.01267  Uiso   1.00
C14    C     0.87890   0.40100   0.53840   0.01267  Uiso   1.00
C15    C     0.06350   0.56290   0.39670   0.01267  Uiso   1.00
C16    C     0.73388   0.45778   0.10514   0.01267  Uiso   1.00
C17    C     0.41730   0.53840   0.06060   0.01267  Uiso   1.00
C18    C     0.46020   0.39670   0.04040   0.01267  Uiso   1.00
N1     N     0.40789   0.89998   0.54461   0.01267  Uiso   1.00
N2     N     0.95250   0.54461   0.55541   0.01267  Uiso   1.00
N3     N     0.50791   0.55541   0.89998   0.01267  Uiso   1.00
N4     N     0.59211   0.10002   0.45539   0.01267  Uiso   1.00
N5     N     0.04750   0.45539   0.44459   0.01267  Uiso   1.00
N6     N     0.49209   0.44459   0.10002   0.01267  Uiso   1.00
O1     O     0.00047   0.84868   0.43217   0.01267  Uiso   1.00
O2     O     0.12380   0.72530   0.56250   0.01267  Uiso   1.00
O3     O     0.77835   0.77345   0.59460   0.01267  Uiso   1.00
O4     O     0.43264   0.43217   0.71915   0.01267  Uiso   1.00
O5     O     0.68630   0.56250   0.71220   0.01267  Uiso   1.00
O6     O     0.37295   0.59460   0.63195   0.01267  Uiso   1.00
O7     O     0.15179   0.71915   0.84868   0.01267  Uiso   1.00
O8     O     0.39850   0.71220   0.72530   0.01267  Uiso   1.00
O9     O     0.00490   0.63195   0.77345   0.01267  Uiso   1.00
O10    O     0.99953   0.15132   0.56783   0.01267  Uiso   1.00
O11    O     0.87620   0.27470   0.43750   0.01267  Uiso   1.00
O12    O     0.22165   0.22655   0.40540   0.01267  Uiso   1.00
O13    O     0.56736   0.56783   0.28085   0.01267  Uiso   1.00
O14    O     0.31370   0.43750   0.28780   0.01267  Uiso   1.00
O15    O     0.62705   0.40540   0.36805   0.01267  Uiso   1.00
O16    O     0.84821   0.28085   0.15132   0.01267  Uiso   1.00
O17    O     0.60150   0.28780   0.27470   0.01267  Uiso   1.00
O18    O     0.99510   0.36805   0.22655   0.01267  Uiso   1.00
H1     H     0.06430   0.93477   0.58997   0.01267  Uiso   1.00
H2     H     0.44099   0.89513   0.67755   0.01267  Uiso   1.00
H3     H     0.70514   0.93656   0.58860   0.01267  Uiso   1.00
H4     H     0.68173   0.95765   0.42082   0.01267  Uiso   1.00
H5     H     0.40202   0.92834   0.40054   0.01267  Uiso   1.00
H6     H     0.65427   0.58997   0.47526   0.01267  Uiso   1.00
H7     H     0.11854   0.67755   0.42732   0.01267  Uiso   1.00
H8     H     0.29374   0.58860   0.47484   0.01267  Uiso   1.00
H9     H     0.10255   0.42082   0.62153   0.01267  Uiso   1.00
H10    H     0.80256   0.40054   0.67112   0.01267  Uiso   1.00
H11    H     0.12954   0.47526   0.93477   0.01267  Uiso   1.00
H12    H     0.54586   0.42732   0.89513   0.01267  Uiso   1.00
H13    H     0.76858   0.47484   0.93656   0.01267  Uiso   1.00
H14    H     0.72407   0.62153   0.95765   0.01267  Uiso   1.00
H15    H     0.47368   0.67112   0.92834   0.01267  Uiso   1.00
H16    H     0.93570   0.06523   0.41003   0.01267  Uiso   1.00
H17    H     0.29485   0.06342   0.41137   0.01267  Uiso   1.00
H18    H     0.55908   0.10490   0.32246   0.01267  Uiso   1.00
H19    H     0.59734   0.07132   0.59989   0.01267  Uiso   1.00
H20    H     0.31832   0.04263   0.57870   0.01267  Uiso   1.00
H21    H     0.34573   0.41003   0.52474   0.01267  Uiso   1.00
H22    H     0.70622   0.41137   0.52521   0.01267  Uiso   1.00
H23    H     0.88154   0.32246   0.57264   0.01267  Uiso   1.00
H24    H     0.19722   0.59989   0.32879   0.01267  Uiso   1.00
H25    H     0.89703   0.57870   0.37867   0.01267  Uiso   1.00
H26    H     0.87046   0.52474   0.06523   0.01267  Uiso   1.00
H27    H     0.23142   0.52521   0.06342   0.01267  Uiso   1.00
H28    H     0.45418   0.57264   0.10490   0.01267  Uiso   1.00
H29    H     0.52601   0.32879   0.07132   0.01267  Uiso   1.00
H30    H     0.27569   0.37867   0.04263   0.01267  Uiso   1.00
