data_XESLAK_clean
_audit_creation_date              2014-07-02
_audit_creation_method            'Materials Studio'
_symmetry_space_group_name_H-M    'P1'
_symmetry_Int_Tables_number       1
_symmetry_cell_setting            triclinic
loop_
_symmetry_equiv_pos_as_xyz
  x,y,z
_cell_length_a                    6.2845
_cell_length_b                    16.3549
_cell_length_c                    16.3549
_cell_angle_alpha                 61.6152
_cell_angle_beta                  82.6410
_cell_angle_gamma                 97.3590
loop_
_atom_site_label
_atom_site_type_symbol
_atom_site_fract_x
_atom_site_fract_y
_atom_site_fract_z
_atom_site_U_iso_or_equiv
_atom_site_adp_type
_atom_site_occupancy
Co1    Co    0.55752   0.24184   0.41888   0.01267  Uiso   1.00
Co2    Co    0.97640   0.41888   0.33928   0.01267  Uiso   1.00
Co3    Co    0.31568   0.33928   0.24184   0.01267  Uiso   1.00
Co4    Co    0.44248   0.75816   0.58112   0.01267  Uiso   1.00
Co5    Co    0.02360   0.58112   0.66072   0.01267  Uiso   1.00
Co6    Co    0.68432   0.66072   0.75816   0.01267  Uiso   1.00
P1     P     0.82090   0.36040   0.18620   0.01267  Uiso   1.00
P2     P     0.00710   0.18620   0.45340   0.01267  Uiso   1.00
P3     P     0.46050   0.45340   0.36040   0.01267  Uiso   1.00
P4     P     0.17910   0.63960   0.81380   0.01267  Uiso   1.00
P5     P     0.99290   0.81380   0.54660   0.01267  Uiso   1.00
P6     P     0.53950   0.54660   0.63960   0.01267  Uiso   1.00
C1     C     0.73740   0.47000   0.10590   0.01267  Uiso   1.00
C2     C     0.44570   0.39590   0.05580   0.01267  Uiso   1.00
C3     C     0.42180   0.55210   0.04670   0.01267  Uiso   1.00
C4     C     0.84330   0.10590   0.42410   0.01267  Uiso   1.00
C5     C     0.50150   0.05580   0.54830   0.01267  Uiso   1.00
C6     C     0.46850   0.04670   0.40120   0.01267  Uiso   1.00
C7     C     0.26740   0.42410   0.47000   0.01267  Uiso   1.00
C8     C     0.04980   0.54830   0.39590   0.01267  Uiso   1.00
C9     C     0.86970   0.40120   0.55210   0.01267  Uiso   1.00
C10    C     0.26260   0.53000   0.89410   0.01267  Uiso   1.00
C11    C     0.55430   0.60410   0.94420   0.01267  Uiso   1.00
C12    C     0.57820   0.44790   0.95330   0.01267  Uiso   1.00
C13    C     0.15670   0.89410   0.57590   0.01267  Uiso   1.00
C14    C     0.49850   0.94420   0.45170   0.01267  Uiso   1.00
C15    C     0.53150   0.95330   0.59880   0.01267  Uiso   1.00
C16    C     0.73260   0.57590   0.53000   0.01267  Uiso   1.00
C17    C     0.95020   0.45170   0.60410   0.01267  Uiso   1.00
C18    C     0.13030   0.59880   0.44790   0.01267  Uiso   1.00
N1     N     0.49769   0.45899   0.09882   0.01267  Uiso   1.00
N2     N     0.59651   0.09882   0.44219   0.01267  Uiso   1.00
N3     N     0.03870   0.44219   0.45899   0.01267  Uiso   1.00
N4     N     0.50231   0.54101   0.90118   0.01267  Uiso   1.00
N5     N     0.40349   0.90118   0.55781   0.01267  Uiso   1.00
N6     N     0.96130   0.55781   0.54101   0.01267  Uiso   1.00
O1     O     0.87020   0.30970   0.13310   0.01267  Uiso   1.00
O2     O     0.62660   0.30060   0.26530   0.01267  Uiso   1.00
O3     O     0.99790   0.37920   0.23290   0.01267  Uiso   1.00
O4     O     0.00330   0.13310   0.55720   0.01267  Uiso   1.00
O5     O     0.89190   0.26530   0.43410   0.01267  Uiso   1.00
O6     O     0.23080   0.23290   0.38790   0.01267  Uiso   1.00
O7     O     0.56050   0.55720   0.30970   0.01267  Uiso   1.00
O8     O     0.32600   0.43410   0.30060   0.01267  Uiso   1.00
O9     O     0.61870   0.38790   0.37920   0.01267  Uiso   1.00
O10    O     0.12980   0.69030   0.86690   0.01267  Uiso   1.00
O11    O     0.37340   0.69940   0.73470   0.01267  Uiso   1.00
O12    O     0.00210   0.62080   0.76710   0.01267  Uiso   1.00
O13    O     0.99670   0.86690   0.44280   0.01267  Uiso   1.00
O14    O     0.10810   0.73470   0.56590   0.01267  Uiso   1.00
O15    O     0.76920   0.76710   0.61210   0.01267  Uiso   1.00
O16    O     0.43950   0.44280   0.69030   0.01267  Uiso   1.00
O17    O     0.67400   0.56590   0.69940   0.01267  Uiso   1.00
O18    O     0.38130   0.61210   0.62080   0.01267  Uiso   1.00
