data_XILDUT_clean
_audit_creation_date              2014-07-02
_audit_creation_method            'Materials Studio'
_symmetry_space_group_name_H-M    'P1'
_symmetry_Int_Tables_number       1
_symmetry_cell_setting            triclinic
loop_
_symmetry_equiv_pos_as_xyz
  x,y,z
_cell_length_a                    12.7907
_cell_length_b                    12.7907
_cell_length_c                    19.2580
_cell_angle_alpha                 71.1226
_cell_angle_beta                  71.1226
_cell_angle_gamma                 86.7339
loop_
_atom_site_label
_atom_site_type_symbol
_atom_site_fract_x
_atom_site_fract_y
_atom_site_fract_z
_atom_site_U_iso_or_equiv
_atom_site_adp_type
_atom_site_occupancy
Na1    Na    0.81709   0.01845   0.24256   0.01267  Uiso   1.00
Na2    Na    0.98155   0.18291   0.25744   0.01267  Uiso   1.00
Na3    Na    0.18291   0.98155   0.75744   0.01267  Uiso   1.00
Na4    Na    0.01845   0.81709   0.74256   0.01267  Uiso   1.00
Zn1    Zn    0.72528   0.79118   0.41158   0.01267  Uiso   1.00
Zn2    Zn    0.20882   0.27472   0.08842   0.01267  Uiso   1.00
Zn3    Zn    0.27472   0.20882   0.58842   0.01267  Uiso   1.00
Zn4    Zn    0.79118   0.72528   0.91158   0.01267  Uiso   1.00
H1     H     0.78600   0.18220   0.29680   0.01267  Uiso   1.00
H2     H     0.81780   0.21400   0.20320   0.01267  Uiso   1.00
H3     H     0.21400   0.81780   0.70320   0.01267  Uiso   1.00
H4     H     0.18220   0.78600   0.79680   0.01267  Uiso   1.00
C1     C     0.84010   0.74490   0.27390   0.01267  Uiso   1.00
C2     C     0.90500   0.66280   0.23610   0.01267  Uiso   1.00
C3     C     0.86990   0.62550   0.18630   0.01267  Uiso   1.00
C4     C     0.93240   0.55300   0.15050   0.01267  Uiso   1.00
C5     C     0.02980   0.51620   0.16430   0.01267  Uiso   1.00
C6     C     0.06410   0.55250   0.21520   0.01267  Uiso   1.00
C7     C     0.00260   0.62540   0.25000   0.01267  Uiso   1.00
C8     C     0.10480   0.44680   0.12020   0.01267  Uiso   1.00
C9     C     0.88500   0.94380   0.40670   0.01267  Uiso   1.00
C10    C     0.94700   0.97520   0.45390   0.01267  Uiso   1.00
C11    C     0.05130   0.94030   0.45040   0.01267  Uiso   1.00
C12    C     0.89430   0.03590   0.50280   0.01267  Uiso   1.00
C13    C     0.71830   0.26530   0.22640   0.01267  Uiso   1.00
C14    C     0.25510   0.15990   0.22610   0.01267  Uiso   1.00
C15    C     0.33720   0.09500   0.26390   0.01267  Uiso   1.00
C16    C     0.37450   0.13010   0.31370   0.01267  Uiso   1.00
C17    C     0.44700   0.06760   0.34950   0.01267  Uiso   1.00
C18    C     0.48380   0.97020   0.33570   0.01267  Uiso   1.00
C19    C     0.44750   0.93590   0.28480   0.01267  Uiso   1.00
C20    C     0.37460   0.99740   0.25000   0.01267  Uiso   1.00
C21    C     0.55320   0.89520   0.37980   0.01267  Uiso   1.00
C22    C     0.05620   0.11500   0.09330   0.01267  Uiso   1.00
C23    C     0.02480   0.05300   0.04610   0.01267  Uiso   1.00
C24    C     0.05970   0.94870   0.04960   0.01267  Uiso   1.00
C25    C     0.96410   0.10570   0.99720   0.01267  Uiso   1.00
C26    C     0.73470   0.28170   0.27360   0.01267  Uiso   1.00
C27    C     0.15990   0.25510   0.72610   0.01267  Uiso   1.00
C28    C     0.09500   0.33720   0.76390   0.01267  Uiso   1.00
C29    C     0.13010   0.37450   0.81370   0.01267  Uiso   1.00
C30    C     0.06760   0.44700   0.84950   0.01267  Uiso   1.00
C31    C     0.97020   0.48380   0.83570   0.01267  Uiso   1.00
C32    C     0.93590   0.44750   0.78480   0.01267  Uiso   1.00
C33    C     0.99740   0.37460   0.75000   0.01267  Uiso   1.00
C34    C     0.89520   0.55320   0.87980   0.01267  Uiso   1.00
C35    C     0.11500   0.05620   0.59330   0.01267  Uiso   1.00
C36    C     0.05300   0.02480   0.54610   0.01267  Uiso   1.00
C37    C     0.94870   0.05970   0.54960   0.01267  Uiso   1.00
C38    C     0.10570   0.96410   0.49720   0.01267  Uiso   1.00
C39    C     0.28170   0.73470   0.77360   0.01267  Uiso   1.00
C40    C     0.74490   0.84010   0.77390   0.01267  Uiso   1.00
C41    C     0.66280   0.90500   0.73610   0.01267  Uiso   1.00
C42    C     0.62550   0.86990   0.68630   0.01267  Uiso   1.00
C43    C     0.55300   0.93240   0.65050   0.01267  Uiso   1.00
C44    C     0.51620   0.02980   0.66430   0.01267  Uiso   1.00
C45    C     0.55250   0.06410   0.71520   0.01267  Uiso   1.00
C46    C     0.62540   0.00260   0.75000   0.01267  Uiso   1.00
C47    C     0.44680   0.10480   0.62020   0.01267  Uiso   1.00
C48    C     0.94380   0.88500   0.90670   0.01267  Uiso   1.00
C49    C     0.97520   0.94700   0.95390   0.01267  Uiso   1.00
C50    C     0.94030   0.05130   0.95040   0.01267  Uiso   1.00
C51    C     0.03590   0.89430   0.00280   0.01267  Uiso   1.00
C52    C     0.26530   0.71830   0.72640   0.01267  Uiso   1.00
Cl1    Cl    0.74932   0.67324   0.16722   0.01267  Uiso   1.00
Cl2    Cl    0.89153   0.51295   0.08503   0.01267  Uiso   1.00
Cl3    Cl    0.04904   0.67452   0.30962   0.01267  Uiso   1.00
Cl4    Cl    0.18357   0.50187   0.23503   0.01267  Uiso   1.00
Cl5    Cl    0.11700   0.86552   0.38933   0.01267  Uiso   1.00
Cl6    Cl    0.76365   0.08181   0.50480   0.01267  Uiso   1.00
Cl7    Cl    0.32676   0.25068   0.33278   0.01267  Uiso   1.00
Cl8    Cl    0.48705   0.10847   0.41497   0.01267  Uiso   1.00
Cl9    Cl    0.32548   0.95096   0.19038   0.01267  Uiso   1.00
Cl10   Cl    0.49813   0.81643   0.26497   0.01267  Uiso   1.00
Cl11   Cl    0.13448   0.88300   0.11067   0.01267  Uiso   1.00
Cl12   Cl    0.91819   0.23635   0.99520   0.01267  Uiso   1.00
Cl13   Cl    0.25068   0.32676   0.83278   0.01267  Uiso   1.00
Cl14   Cl    0.10847   0.48705   0.91497   0.01267  Uiso   1.00
Cl15   Cl    0.95096   0.32548   0.69038   0.01267  Uiso   1.00
Cl16   Cl    0.81643   0.49813   0.76497   0.01267  Uiso   1.00
Cl17   Cl    0.88300   0.13448   0.61067   0.01267  Uiso   1.00
Cl18   Cl    0.23635   0.91819   0.49520   0.01267  Uiso   1.00
Cl19   Cl    0.67324   0.74932   0.66722   0.01267  Uiso   1.00
Cl20   Cl    0.51295   0.89153   0.58503   0.01267  Uiso   1.00
Cl21   Cl    0.67452   0.04904   0.80962   0.01267  Uiso   1.00
Cl22   Cl    0.50187   0.18357   0.73503   0.01267  Uiso   1.00
Cl23   Cl    0.86552   0.11700   0.88933   0.01267  Uiso   1.00
Cl24   Cl    0.08181   0.76365   0.00480   0.01267  Uiso   1.00
O1     O     0.78320   0.69900   0.34520   0.01267  Uiso   1.00
O2     O     0.84900   0.84200   0.23540   0.01267  Uiso   1.00
O3     O     0.08180   0.34420   0.14520   0.01267  Uiso   1.00
O4     O     0.18280   0.49260   0.06370   0.01267  Uiso   1.00
O5     O     0.89290   0.00490   0.34160   0.01267  Uiso   1.00
O6     O     0.83040   0.85080   0.44370   0.01267  Uiso   1.00
O7     O     0.30100   0.21680   0.15480   0.01267  Uiso   1.00
O8     O     0.15800   0.15100   0.26460   0.01267  Uiso   1.00
O9     O     0.65580   0.91820   0.35480   0.01267  Uiso   1.00
O10    O     0.50740   0.81720   0.43630   0.01267  Uiso   1.00
O11    O     0.99510   0.10710   0.15840   0.01267  Uiso   1.00
O12    O     0.14920   0.16960   0.05630   0.01267  Uiso   1.00
O13    O     0.21680   0.30100   0.65480   0.01267  Uiso   1.00
O14    O     0.15100   0.15800   0.76460   0.01267  Uiso   1.00
O15    O     0.91820   0.65580   0.85480   0.01267  Uiso   1.00
O16    O     0.81720   0.50740   0.93630   0.01267  Uiso   1.00
O17    O     0.10710   0.99510   0.65840   0.01267  Uiso   1.00
O18    O     0.16960   0.14920   0.55630   0.01267  Uiso   1.00
O19    O     0.69900   0.78320   0.84520   0.01267  Uiso   1.00
O20    O     0.84200   0.84900   0.73540   0.01267  Uiso   1.00
O21    O     0.34420   0.08180   0.64520   0.01267  Uiso   1.00
O22    O     0.49260   0.18280   0.56370   0.01267  Uiso   1.00
O23    O     0.00490   0.89290   0.84160   0.01267  Uiso   1.00
O24    O     0.85080   0.83040   0.94370   0.01267  Uiso   1.00
O25    O     0.79610   0.20390   0.25000   0.01267  Uiso   1.00
O26    O     0.20390   0.79610   0.75000   0.01267  Uiso   1.00
