data_XILVEV_clean
_audit_creation_date              2014-07-02
_audit_creation_method            'Materials Studio'
_symmetry_space_group_name_H-M    'P1'
_symmetry_Int_Tables_number       1
_symmetry_cell_setting            triclinic
loop_
_symmetry_equiv_pos_as_xyz
  x,y,z
_cell_length_a                    13.4588
_cell_length_b                    13.4588
_cell_length_c                    14.6388
_cell_angle_alpha                 71.9080
_cell_angle_beta                  68.8840
_cell_angle_gamma                 105.6870
loop_
_atom_site_label
_atom_site_type_symbol
_atom_site_fract_x
_atom_site_fract_y
_atom_site_fract_z
_atom_site_U_iso_or_equiv
_atom_site_adp_type
_atom_site_occupancy
Mn1    Mn    0.50000   0.50000   0.00000   0.01267  Uiso   1.00
Zn1    Zn    0.52790   0.91721   0.55489   0.01267  Uiso   1.00
Zn2    Zn    0.47210   0.08279   0.44511   0.01267  Uiso   1.00
H1     H     0.87890   0.79280   0.92470   0.01267  Uiso   1.00
H2     H     0.88590   0.52300   0.73950   0.01267  Uiso   1.00
H3     H     0.92390   0.80740   0.71210   0.01267  Uiso   1.00
H4     H     0.12630   0.91060   0.61630   0.01267  Uiso   1.00
H5     H     0.17260   0.67400   0.78900   0.01267  Uiso   1.00
H6     H     0.97020   0.57080   0.88480   0.01267  Uiso   1.00
H7     H     0.74270   0.35300   0.51310   0.01267  Uiso   1.00
H8     H     0.71750   0.80360   0.07530   0.01267  Uiso   1.00
H9     H     0.26250   0.62540   0.26050   0.01267  Uiso   1.00
H10    H     0.51950   0.63600   0.28790   0.01267  Uiso   1.00
H11    H     0.52690   0.74260   0.38370   0.01267  Uiso   1.00
H12    H     0.46300   0.96160   0.21100   0.01267  Uiso   1.00
H13    H     0.45560   0.85500   0.11520   0.01267  Uiso   1.00
H14    H     0.86610   0.25580   0.48690   0.01267  Uiso   1.00
H15    H     0.12110   0.20720   0.07530   0.01267  Uiso   1.00
H16    H     0.11410   0.47700   0.26050   0.01267  Uiso   1.00
H17    H     0.07610   0.19260   0.28790   0.01267  Uiso   1.00
H18    H     0.87370   0.08940   0.38370   0.01267  Uiso   1.00
H19    H     0.82740   0.32600   0.21100   0.01267  Uiso   1.00
H20    H     0.02980   0.42920   0.11520   0.01267  Uiso   1.00
H21    H     0.25730   0.64700   0.48690   0.01267  Uiso   1.00
H22    H     0.28250   0.19640   0.92470   0.01267  Uiso   1.00
H23    H     0.73750   0.37460   0.73950   0.01267  Uiso   1.00
H24    H     0.48050   0.36400   0.71210   0.01267  Uiso   1.00
H25    H     0.47310   0.25740   0.61630   0.01267  Uiso   1.00
H26    H     0.53700   0.03840   0.78900   0.01267  Uiso   1.00
H27    H     0.54440   0.14500   0.88480   0.01267  Uiso   1.00
H28    H     0.13390   0.74420   0.51310   0.01267  Uiso   1.00
H29    H     0.54980   0.74560   0.70460   0.01267  Uiso   1.00
H30    H     0.66690   0.63700   0.69610   0.01267  Uiso   1.00
H31    H     0.82170   0.78010   0.39820   0.01267  Uiso   1.00
H32    H     0.71010   0.89240   0.39750   0.01267  Uiso   1.00
H33    H     0.45020   0.25440   0.29540   0.01267  Uiso   1.00
H34    H     0.33310   0.36300   0.30390   0.01267  Uiso   1.00
H35    H     0.17830   0.21990   0.60180   0.01267  Uiso   1.00
H36    H     0.28990   0.10760   0.60250   0.01267  Uiso   1.00
C1     C     0.79810   0.74690   0.96000   0.01267  Uiso   1.00
C2     C     0.73920   0.65030   0.94510   0.01267  Uiso   1.00
C3     C     0.79120   0.61640   0.86440   0.01267  Uiso   1.00
C4     C     0.73820   0.53500   0.84800   0.01267  Uiso   1.00
C5     C     0.80430   0.49670   0.77700   0.01267  Uiso   1.00
C6     C     0.92850   0.67970   0.80720   0.01267  Uiso   1.00
C7     C     0.97470   0.78010   0.72780   0.01267  Uiso   1.00
C8     C     0.09450   0.84120   0.67110   0.01267  Uiso   1.00
C9     C     0.16800   0.80170   0.69390   0.01267  Uiso   1.00
C10    C     0.12180   0.70130   0.77330   0.01267  Uiso   1.00
C11    C     0.00200   0.64020   0.83000   0.01267  Uiso   1.00
C12    C     0.30990   0.89170   0.61320   0.01267  Uiso   1.00
C13    C     0.78500   0.55530   0.52530   0.01267  Uiso   1.00
C14    C     0.81680   0.38210   0.50750   0.01267  Uiso   1.00
C15    C     0.85950   0.48200   0.51330   0.01267  Uiso   1.00
C16    C     0.70690   0.75810   0.04000   0.01267  Uiso   1.00
C17    C     0.59540   0.68430   0.05490   0.01267  Uiso   1.00
C18    C     0.48080   0.65560   0.13560   0.01267  Uiso   1.00
C19    C     0.38300   0.58620   0.15200   0.01267  Uiso   1.00
C20    C     0.27370   0.58130   0.22300   0.01267  Uiso   1.00
C21    C     0.48690   0.73570   0.19280   0.01267  Uiso   1.00
C22    C     0.50790   0.70250   0.27220   0.01267  Uiso   1.00
C23    C     0.51230   0.76560   0.32890   0.01267  Uiso   1.00
C24    C     0.49560   0.86190   0.30610   0.01267  Uiso   1.00
C25    C     0.47460   0.89510   0.22670   0.01267  Uiso   1.00
C26    C     0.47020   0.83200   0.17000   0.01267  Uiso   1.00
C27    C     0.50490   0.92310   0.38680   0.01267  Uiso   1.00
C28    C     0.08060   0.31030   0.47470   0.01267  Uiso   1.00
C29    C     0.88960   0.32430   0.49250   0.01267  Uiso   1.00
C30    C     0.99530   0.37280   0.48670   0.01267  Uiso   1.00
C31    C     0.20190   0.25310   0.04000   0.01267  Uiso   1.00
C32    C     0.26080   0.34970   0.05490   0.01267  Uiso   1.00
C33    C     0.20880   0.38360   0.13560   0.01267  Uiso   1.00
C34    C     0.26180   0.46500   0.15200   0.01267  Uiso   1.00
C35    C     0.19570   0.50330   0.22300   0.01267  Uiso   1.00
C36    C     0.07150   0.32030   0.19280   0.01267  Uiso   1.00
C37    C     0.02530   0.21990   0.27220   0.01267  Uiso   1.00
C38    C     0.90550   0.15880   0.32890   0.01267  Uiso   1.00
C39    C     0.83200   0.19830   0.30610   0.01267  Uiso   1.00
C40    C     0.87820   0.29870   0.22670   0.01267  Uiso   1.00
C41    C     0.99800   0.35980   0.17000   0.01267  Uiso   1.00
C42    C     0.69010   0.10830   0.38680   0.01267  Uiso   1.00
C43    C     0.21500   0.44470   0.47470   0.01267  Uiso   1.00
C44    C     0.18320   0.61790   0.49250   0.01267  Uiso   1.00
C45    C     0.14050   0.51800   0.48670   0.01267  Uiso   1.00
C46    C     0.29310   0.24190   0.96000   0.01267  Uiso   1.00
C47    C     0.40460   0.31570   0.94510   0.01267  Uiso   1.00
C48    C     0.51920   0.34440   0.86440   0.01267  Uiso   1.00
C49    C     0.61700   0.41380   0.84800   0.01267  Uiso   1.00
C50    C     0.72630   0.41870   0.77700   0.01267  Uiso   1.00
C51    C     0.51310   0.26430   0.80720   0.01267  Uiso   1.00
C52    C     0.49210   0.29750   0.72780   0.01267  Uiso   1.00
C53    C     0.48770   0.23440   0.67110   0.01267  Uiso   1.00
C54    C     0.50440   0.13810   0.69390   0.01267  Uiso   1.00
C55    C     0.52540   0.10490   0.77330   0.01267  Uiso   1.00
C56    C     0.52980   0.16800   0.83000   0.01267  Uiso   1.00
C57    C     0.49510   0.07690   0.61320   0.01267  Uiso   1.00
C58    C     0.91940   0.68970   0.52530   0.01267  Uiso   1.00
C59    C     0.11040   0.67570   0.50750   0.01267  Uiso   1.00
C60    C     0.00470   0.62720   0.51330   0.01267  Uiso   1.00
C61    C     0.60300   0.75720   0.63980   0.01267  Uiso   1.00
C62    C     0.67800   0.69100   0.63100   0.01267  Uiso   1.00
C63    C     0.75280   0.70520   0.54200   0.01267  Uiso   1.00
C64    C     0.76570   0.76930   0.46500   0.01267  Uiso   1.00
C65    C     0.69600   0.83940   0.46460   0.01267  Uiso   1.00
C66    C     0.96540   0.53380   0.50080   0.01267  Uiso   1.00
C67    C     0.39700   0.24280   0.36020   0.01267  Uiso   1.00
C68    C     0.32200   0.30900   0.36900   0.01267  Uiso   1.00
C69    C     0.24720   0.29480   0.45800   0.01267  Uiso   1.00
C70    C     0.23430   0.23070   0.53500   0.01267  Uiso   1.00
C71    C     0.30400   0.16060   0.53540   0.01267  Uiso   1.00
C72    C     0.03460   0.46620   0.49920   0.01267  Uiso   1.00
N1     N     0.61470   0.82850   0.55680   0.01267  Uiso   1.00
N2     N     0.82570   0.64270   0.53160   0.01267  Uiso   1.00
N3     N     0.38530   0.17150   0.44320   0.01267  Uiso   1.00
N4     N     0.17430   0.35730   0.46840   0.01267  Uiso   1.00
N5     N     0.61860   0.61860   0.00000   0.01267  Uiso   1.00
N6     N     0.38140   0.38140  -0.00000   0.01267  Uiso   1.00
N7     N     0.63240   0.48080   0.88680   0.01267  Uiso   1.00
N8     N     0.36760   0.51920   0.11320   0.01267  Uiso   1.00
O1     O     0.36060   0.82210   0.64210   0.01267  Uiso   1.00
O2     O     0.32320   0.95930   0.53110   0.01267  Uiso   1.00
O3     O     0.70420   0.52000   0.51700   0.01267  Uiso   1.00
O4     O     0.46420   0.00270   0.35790   0.01267  Uiso   1.00
O5     O     0.49040   0.85430   0.46890   0.01267  Uiso   1.00
O6     O     0.03700   0.22120   0.48300   0.01267  Uiso   1.00
O7     O     0.63940   0.17790   0.35790   0.01267  Uiso   1.00
O8     O     0.67680   0.04070   0.46890   0.01267  Uiso   1.00
O9     O     0.29580   0.48000   0.48300   0.01267  Uiso   1.00
O10    O     0.53580   0.99730   0.64210   0.01267  Uiso   1.00
O11    O     0.50960   0.14570   0.53110   0.01267  Uiso   1.00
O12    O     0.96300   0.77880   0.51700   0.01267  Uiso   1.00
