data_XOJXAW_charged
_audit_creation_date              2014-07-02
_audit_creation_method            'Materials Studio'
_symmetry_space_group_name_H-M    'P1'
_symmetry_Int_Tables_number       1
_symmetry_cell_setting            triclinic
loop_
_symmetry_equiv_pos_as_xyz
  x,y,z
_cell_length_a                    9.6940
_cell_length_b                    10.1170
_cell_length_c                    19.4880
_cell_angle_alpha                 90.0000
_cell_angle_beta                  104.0400
_cell_angle_gamma                 90.0000
loop_
_atom_site_label
_atom_site_type_symbol
_atom_site_fract_x
_atom_site_fract_y
_atom_site_fract_z
_atom_site_U_iso_or_equiv
_atom_site_adp_type
_atom_site_occupancy
Zn1    Zn    0.49523   0.47873   0.22260   0.01267  Uiso   1.00
Zn2    Zn    0.84340   0.46360   0.19744   0.01267  Uiso   1.00
Zn3    Zn    0.00852   0.75977   0.22978   0.01267  Uiso   1.00
Zn4    Zn    0.81601   0.02719   0.26456   0.01267  Uiso   1.00
Zn5    Zn    0.50477   0.97873   0.77740   0.01267  Uiso   1.00
Zn6    Zn    0.15660   0.96360   0.80256   0.01267  Uiso   1.00
Zn7    Zn    0.99148   0.25977   0.77022   0.01267  Uiso   1.00
Zn8    Zn    0.18399   0.52719   0.73544   0.01267  Uiso   1.00
P1     P     0.15560   0.52270   0.17749   0.01267  Uiso   1.00
P2     P     0.68680   0.73670   0.21026   0.01267  Uiso   1.00
P3     P     0.27780   0.80240   0.68470   0.01267  Uiso   1.00
P4     P     0.84440   0.02270   0.82251   0.01267  Uiso   1.00
P5     P     0.31320   0.23670   0.78974   0.01267  Uiso   1.00
P6     P     0.72220   0.30240   0.31530   0.01267  Uiso   1.00
H1     H     0.27450   0.66600   0.07830   0.01267  Uiso   1.00
H2     H     0.25270   0.65750   0.95800   0.01267  Uiso   1.00
H3     H     0.95690   0.37900   0.94090   0.01267  Uiso   1.00
H4     H     0.98420   0.37800   0.06000   0.01267  Uiso   1.00
H5     H     0.75030   0.70090   0.07210   0.01267  Uiso   1.00
H6     H     0.64450   0.76610   0.96060   0.01267  Uiso   1.00
H7     H     0.33330   0.93820   0.02830   0.01267  Uiso   1.00
H8     H     0.44880   0.88990   0.14320   0.01267  Uiso   1.00
H9     H     0.05390   0.04500   0.47680   0.01267  Uiso   1.00
H10    H     0.13830   0.01280   0.59730   0.01267  Uiso   1.00
H11    H     0.23560   0.64130   0.56010   0.01267  Uiso   1.00
H12    H     0.15190   0.67280   0.44130   0.01267  Uiso   1.00
H13    H     0.72550   0.16600   0.92170   0.01267  Uiso   1.00
H14    H     0.74730   0.15750   0.04200   0.01267  Uiso   1.00
H15    H     0.04310   0.87900   0.05910   0.01267  Uiso   1.00
H16    H     0.01580   0.87800   0.94000   0.01267  Uiso   1.00
H17    H     0.24970   0.20090   0.92790   0.01267  Uiso   1.00
H18    H     0.35550   0.26610   0.03940   0.01267  Uiso   1.00
H19    H     0.66670   0.43820   0.97170   0.01267  Uiso   1.00
H20    H     0.55120   0.38990   0.85680   0.01267  Uiso   1.00
H21    H     0.94610   0.54500   0.52320   0.01267  Uiso   1.00
H22    H     0.86170   0.51280   0.40270   0.01267  Uiso   1.00
H23    H     0.76440   0.14130   0.43990   0.01267  Uiso   1.00
H24    H     0.84810   0.17280   0.55870   0.01267  Uiso   1.00
C1     C     0.13480   0.51890   0.08390   0.01267  Uiso   1.00
C2     C     0.21270   0.60520   0.05100   0.01267  Uiso   1.00
C3     C     0.19840   0.60100   0.97850   0.01267  Uiso   1.00
C4     C     0.10650   0.51560   0.93700   0.01267  Uiso   1.00
C5     C     0.02400   0.43470   0.96890   0.01267  Uiso   1.00
C6     C     0.03910   0.43510   0.04020   0.01267  Uiso   1.00
C7     C     0.09510   0.50310   0.85990   0.01267  Uiso   1.00
C8     C     0.60870   0.78680   0.12120   0.01267  Uiso   1.00
C9     C     0.66740   0.75090   0.06380   0.01267  Uiso   1.00
C10    C     0.60350   0.78880   0.99740   0.01267  Uiso   1.00
C11    C     0.47800   0.86090   0.98270   0.01267  Uiso   1.00
C12    C     0.41960   0.89350   0.03750   0.01267  Uiso   1.00
C13    C     0.48680   0.86100   0.10640   0.01267  Uiso   1.00
C14    C     0.40640   0.89870   0.90840   0.01267  Uiso   1.00
C15    C     0.03990   0.88540   0.36900   0.01267  Uiso   1.00
C16    C     0.09320   0.86560   0.44710   0.01267  Uiso   1.00
C17    C     0.09100   0.96300   0.49350   0.01267  Uiso   1.00
C18    C     0.14310   0.94440   0.56610   0.01267  Uiso   1.00
C19    C     0.20160   0.82440   0.59170   0.01267  Uiso   1.00
C20    C     0.20050   0.72390   0.54350   0.01267  Uiso   1.00
C21    C     0.14950   0.74170   0.47250   0.01267  Uiso   1.00
C22    C     0.86520   0.01890   0.91610   0.01267  Uiso   1.00
C23    C     0.78730   0.10520   0.94900   0.01267  Uiso   1.00
C24    C     0.80160   0.10100   0.02150   0.01267  Uiso   1.00
C25    C     0.89350   0.01560   0.06300   0.01267  Uiso   1.00
C26    C     0.97600   0.93470   0.03110   0.01267  Uiso   1.00
C27    C     0.96090   0.93510   0.95980   0.01267  Uiso   1.00
C28    C     0.90490   0.00310   0.14010   0.01267  Uiso   1.00
C29    C     0.39130   0.28680   0.87880   0.01267  Uiso   1.00
C30    C     0.33260   0.25090   0.93620   0.01267  Uiso   1.00
C31    C     0.39650   0.28880   0.00260   0.01267  Uiso   1.00
C32    C     0.52200   0.36090   0.01730   0.01267  Uiso   1.00
C33    C     0.58040   0.39350   0.96250   0.01267  Uiso   1.00
C34    C     0.51320   0.36100   0.89360   0.01267  Uiso   1.00
C35    C     0.59360   0.39870   0.09160   0.01267  Uiso   1.00
C36    C     0.96010   0.38540   0.63100   0.01267  Uiso   1.00
C37    C     0.90680   0.36560   0.55290   0.01267  Uiso   1.00
C38    C     0.90900   0.46300   0.50650   0.01267  Uiso   1.00
C39    C     0.85690   0.44440   0.43390   0.01267  Uiso   1.00
C40    C     0.79840   0.32440   0.40830   0.01267  Uiso   1.00
C41    C     0.79950   0.22390   0.45650   0.01267  Uiso   1.00
C42    C     0.85050   0.24170   0.52750   0.01267  Uiso   1.00
O1     O     0.29600   0.46030   0.21330   0.01267  Uiso   1.00
O2     O     0.03560   0.44250   0.19330   0.01267  Uiso   1.00
O3     O     0.15260   0.66520   0.19950   0.01267  Uiso   1.00
O4     O     0.01100   0.42190   0.82520   0.01267  Uiso   1.00
O5     O     0.17010   0.57900   0.83200   0.01267  Uiso   1.00
O6     O     0.82580   0.66120   0.20920   0.01267  Uiso   1.00
O7     O     0.72010   0.85780   0.25580   0.01267  Uiso   1.00
O8     O     0.58160   0.64850   0.23390   0.01267  Uiso   1.00
O9     O     0.27880   0.93140   0.89550   0.01267  Uiso   1.00
O10    O     0.48350   0.89710   0.86420   0.01267  Uiso   1.00
O11    O     0.97980   0.99090   0.34630   0.01267  Uiso   1.00
O12    O     0.05880   0.78820   0.32980   0.01267  Uiso   1.00
O13    O     0.28580   0.65760   0.69820   0.01267  Uiso   1.00
O14    O     0.42600   0.86240   0.69980   0.01267  Uiso   1.00
O15    O     0.18190   0.87310   0.72160   0.01267  Uiso   1.00
O16    O     0.70400   0.96030   0.78670   0.01267  Uiso   1.00
O17    O     0.96440   0.94250   0.80670   0.01267  Uiso   1.00
O18    O     0.84740   0.16520   0.80050   0.01267  Uiso   1.00
O19    O     0.98900   0.92190   0.17480   0.01267  Uiso   1.00
O20    O     0.82990   0.07900   0.16800   0.01267  Uiso   1.00
O21    O     0.17420   0.16120   0.79080   0.01267  Uiso   1.00
O22    O     0.27990   0.35780   0.74420   0.01267  Uiso   1.00
O23    O     0.41840   0.14850   0.76610   0.01267  Uiso   1.00
O24    O     0.72120   0.43140   0.10450   0.01267  Uiso   1.00
O25    O     0.51650   0.39710   0.13580   0.01267  Uiso   1.00
O26    O     0.02020   0.49090   0.65370   0.01267  Uiso   1.00
O27    O     0.94120   0.28820   0.67020   0.01267  Uiso   1.00
O28    O     0.71420   0.15760   0.30180   0.01267  Uiso   1.00
O29    O     0.57400   0.36240   0.30020   0.01267  Uiso   1.00
O30    O     0.81810   0.37310   0.27840   0.01267  Uiso   1.00
H25    H     0.40660   0.25610   0.31430   0.01267  Uiso   1.00
H26    H     0.17490   0.22120   0.23870   0.01267  Uiso   1.00
H27    H     0.18660   0.07670   0.26860   0.01267  Uiso   1.00
H28    H     0.23860   0.07610   0.16900   0.01267  Uiso   1.00
H29    H     0.35090   0.18890   0.19290   0.01267  Uiso   1.00
H30    H     0.37760   0.04870   0.22780   0.01267  Uiso   1.00
H31    H     0.34730   0.13270   0.42270   0.01267  Uiso   1.00
H32    H     0.50020   0.15850   0.41070   0.01267  Uiso   1.00
H33    H     0.48190   0.94220   0.40070   0.01267  Uiso   1.00
H34    H     0.32070   0.94900   0.36090   0.01267  Uiso   1.00
H35    H     0.43780   0.98820   0.32150   0.01267  Uiso   1.00
H36    H     0.16590   0.29700   0.29420   0.01267  Uiso   1.00
H37    H     0.16760   0.20110   0.35690   0.01267  Uiso   1.00
H38    H     0.15390   0.39820   0.39860   0.01267  Uiso   1.00
H39    H     0.31220   0.35590   0.43010   0.01267  Uiso   1.00
H40    H     0.27470   0.45310   0.36560   0.01267  Uiso   1.00
C43    C     0.24100   0.15100   0.25740   0.01267  Uiso   1.00
C44    C     0.30700   0.11400   0.20840   0.01267  Uiso   1.00
C45    C     0.40600   0.12500   0.38900   0.01267  Uiso   1.00
C46    C     0.41200   0.99000   0.36600   0.01267  Uiso   1.00
C47    C     0.22400   0.26600   0.33920   0.01267  Uiso   1.00
C48    C     0.24300   0.37800   0.38740   0.01267  Uiso   1.00
N1     N     0.34300   0.19800   0.32400   0.01267  Uiso   1.00
H41    H     0.59340   0.75610   0.68570   0.01267  Uiso   1.00
H42    H     0.82510   0.72120   0.76130   0.01267  Uiso   1.00
H43    H     0.81340   0.57670   0.73140   0.01267  Uiso   1.00
H44    H     0.76140   0.57610   0.83100   0.01267  Uiso   1.00
H45    H     0.64910   0.68890   0.80710   0.01267  Uiso   1.00
H46    H     0.62240   0.54870   0.77220   0.01267  Uiso   1.00
H47    H     0.65270   0.63270   0.57730   0.01267  Uiso   1.00
H48    H     0.49980   0.65850   0.58930   0.01267  Uiso   1.00
H49    H     0.51810   0.44220   0.59930   0.01267  Uiso   1.00
H50    H     0.67930   0.44900   0.63910   0.01267  Uiso   1.00
H51    H     0.56220   0.48820   0.67850   0.01267  Uiso   1.00
H52    H     0.83410   0.79700   0.70580   0.01267  Uiso   1.00
H53    H     0.83240   0.70110   0.64310   0.01267  Uiso   1.00
H54    H     0.84610   0.89820   0.60140   0.01267  Uiso   1.00
H55    H     0.68780   0.85590   0.56990   0.01267  Uiso   1.00
H56    H     0.72530   0.95310   0.63440   0.01267  Uiso   1.00
C49    C     0.75900   0.65100   0.74260   0.01267  Uiso   1.00
C50    C     0.69300   0.61400   0.79160   0.01267  Uiso   1.00
C51    C     0.59400   0.62500   0.61100   0.01267  Uiso   1.00
C52    C     0.58800   0.49000   0.63400   0.01267  Uiso   1.00
C53    C     0.77600   0.76600   0.66080   0.01267  Uiso   1.00
C54    C     0.75700   0.87800   0.61260   0.01267  Uiso   1.00
N2     N     0.65700   0.69800   0.67600   0.01267  Uiso   1.00
