data_XOPVII_clean
_audit_creation_date              2014-07-02
_audit_creation_method            'Materials Studio'
_symmetry_space_group_name_H-M    'P1'
_symmetry_Int_Tables_number       1
_symmetry_cell_setting            triclinic
loop_
_symmetry_equiv_pos_as_xyz
  x,y,z
_cell_length_a                    8.7930
_cell_length_b                    10.0910
_cell_length_c                    15.4040
_cell_angle_alpha                 87.8260
_cell_angle_beta                  88.9410
_cell_angle_gamma                 73.3180
loop_
_atom_site_label
_atom_site_type_symbol
_atom_site_fract_x
_atom_site_fract_y
_atom_site_fract_z
_atom_site_U_iso_or_equiv
_atom_site_adp_type
_atom_site_occupancy
Ni1    Ni    0.05223   0.07877   0.35688   0.01267  Uiso   1.00
Ni2    Ni    0.94777   0.92123   0.64312   0.01267  Uiso   1.00
H1     H     0.38730   0.96520   0.29300   0.01267  Uiso   1.00
H2     H     0.59540   0.76920   0.28970   0.01267  Uiso   1.00
H3     H     0.32640   0.56460   0.40880   0.01267  Uiso   1.00
H4     H     0.12970   0.76940   0.41760   0.01267  Uiso   1.00
H5     H     0.97440   0.37440   0.42120   0.01267  Uiso   1.00
H6     H     0.76990   0.57830   0.42290   0.01267  Uiso   1.00
H7     H     0.51870   0.40550   0.27580   0.01267  Uiso   1.00
H8     H     0.73100   0.21010   0.27510   0.01267  Uiso   1.00
H9     H     0.12280   0.19270   0.18250   0.01267  Uiso   1.00
H10    H     0.10680   0.16330   0.03840   0.01267  Uiso   1.00
H11    H     0.90460   0.86840   0.09300   0.01267  Uiso   1.00
H12    H     0.92650   0.90800   0.23660   0.01267  Uiso   1.00
H13    H     0.58510   0.12810   0.39390   0.01267  Uiso   1.00
H14    H     0.61270   0.03480   0.70700   0.01267  Uiso   1.00
H15    H     0.40460   0.23080   0.71030   0.01267  Uiso   1.00
H16    H     0.67360   0.43540   0.59120   0.01267  Uiso   1.00
H17    H     0.87030   0.23060   0.58240   0.01267  Uiso   1.00
H18    H     0.02560   0.62560   0.57880   0.01267  Uiso   1.00
H19    H     0.23010   0.42170   0.57710   0.01267  Uiso   1.00
H20    H     0.48130   0.59450   0.72420   0.01267  Uiso   1.00
H21    H     0.26900   0.78990   0.72490   0.01267  Uiso   1.00
H22    H     0.87720   0.80730   0.81750   0.01267  Uiso   1.00
H23    H     0.89320   0.83670   0.96160   0.01267  Uiso   1.00
H24    H     0.09540   0.13160   0.90700   0.01267  Uiso   1.00
H25    H     0.07350   0.09200   0.76340   0.01267  Uiso   1.00
H26    H     0.41490   0.87190   0.60610   0.01267  Uiso   1.00
C1     C     0.37450   0.88390   0.31830   0.01267  Uiso   1.00
C2     C     0.50020   0.76570   0.31560   0.01267  Uiso   1.00
C3     C     0.48680   0.64410   0.35060   0.01267  Uiso   1.00
C4     C     0.34370   0.64600   0.38640   0.01267  Uiso   1.00
C5     C     0.22420   0.76960   0.38950   0.01267  Uiso   1.00
C6     C     0.88150   0.38050   0.39130   0.01267  Uiso   1.00
C7     C     0.75850   0.50400   0.39240   0.01267  Uiso   1.00
C8     C     0.62080   0.51550   0.34850   0.01267  Uiso   1.00
C9     C     0.61060   0.40310   0.30550   0.01267  Uiso   1.00
C10    C     0.73920   0.28450   0.30660   0.01267  Uiso   1.00
C11    C     0.07760   0.12550   0.16480   0.01267  Uiso   1.00
C12    C     0.06840   0.10790   0.07750   0.01267  Uiso   1.00
C13    C     0.00500   0.01180   0.04680   0.01267  Uiso   1.00
C14    C     0.95050   0.93610   0.10890   0.01267  Uiso   1.00
C15    C     0.96440   0.96110   0.19570   0.01267  Uiso   1.00
C16    C     0.28050   0.22350   0.39950   0.01267  Uiso   1.00
C17    C     0.38760   0.10760   0.45390   0.01267  Uiso   1.00
C18    C     0.55020   0.07580   0.43660   0.01267  Uiso   1.00
C19    C     0.33860   0.02900   0.52030   0.01267  Uiso   1.00
C20    C     0.16470   0.05220   0.54190   0.01267  Uiso   1.00
C21    C     0.62550   0.11610   0.68170   0.01267  Uiso   1.00
C22    C     0.49980   0.23430   0.68440   0.01267  Uiso   1.00
C23    C     0.51320   0.35590   0.64940   0.01267  Uiso   1.00
C24    C     0.65630   0.35400   0.61360   0.01267  Uiso   1.00
C25    C     0.77580   0.23040   0.61050   0.01267  Uiso   1.00
C26    C     0.11850   0.61950   0.60870   0.01267  Uiso   1.00
C27    C     0.24150   0.49600   0.60760   0.01267  Uiso   1.00
C28    C     0.37920   0.48450   0.65150   0.01267  Uiso   1.00
C29    C     0.38940   0.59690   0.69450   0.01267  Uiso   1.00
C30    C     0.26080   0.71550   0.69340   0.01267  Uiso   1.00
C31    C     0.92240   0.87450   0.83520   0.01267  Uiso   1.00
C32    C     0.93160   0.89210   0.92250   0.01267  Uiso   1.00
C33    C     0.99500   0.98820   0.95320   0.01267  Uiso   1.00
C34    C     0.04950   0.06390   0.89110   0.01267  Uiso   1.00
C35    C     0.03560   0.03890   0.80430   0.01267  Uiso   1.00
C36    C     0.71950   0.77650   0.60050   0.01267  Uiso   1.00
C37    C     0.61240   0.89240   0.54610   0.01267  Uiso   1.00
C38    C     0.44980   0.92420   0.56340   0.01267  Uiso   1.00
C39    C     0.66140   0.97100   0.47970   0.01267  Uiso   1.00
C40    C     0.83530   0.94780   0.45810   0.01267  Uiso   1.00
N1     N     0.23630   0.88750   0.35496   0.01267  Uiso   1.00
N2     N     0.87020   0.27040   0.34861   0.01267  Uiso   1.00
N3     N     0.02680   0.05390   0.22426   0.01267  Uiso   1.00
N4     N     0.76370   0.11250   0.64504   0.01267  Uiso   1.00
N5     N     0.12980   0.72960   0.65139   0.01267  Uiso   1.00
N6     N     0.97320   0.94610   0.77574   0.01267  Uiso   1.00
O1     O     0.21290   0.19010   0.33529   0.01267  Uiso   1.00
O2     O     0.27430   0.34200   0.41790   0.01267  Uiso   1.00
O3     O     0.06490   0.11350   0.48633   0.01267  Uiso   1.00
O4     O     0.13190   0.00970   0.61595   0.01267  Uiso   1.00
O5     O     0.78710   0.80990   0.66471   0.01267  Uiso   1.00
O6     O     0.72570   0.65800   0.58210   0.01267  Uiso   1.00
O7     O     0.93510   0.88650   0.51367   0.01267  Uiso   1.00
O8     O     0.86810   0.99030   0.38405   0.01267  Uiso   1.00
