data_XOQXOR_clean
_audit_creation_date              2014-07-02
_audit_creation_method            'Materials Studio'
_symmetry_space_group_name_H-M    'P1'
_symmetry_Int_Tables_number       1
_symmetry_cell_setting            triclinic
loop_
_symmetry_equiv_pos_as_xyz
  x,y,z
_cell_length_a                    12.0891
_cell_length_b                    14.8288
_cell_length_c                    28.0555
_cell_angle_alpha                 96.9621
_cell_angle_beta                  90.0000
_cell_angle_gamma                 114.0560
loop_
_atom_site_label
_atom_site_type_symbol
_atom_site_fract_x
_atom_site_fract_y
_atom_site_fract_z
_atom_site_U_iso_or_equiv
_atom_site_adp_type
_atom_site_occupancy
Zn1    Zn    0.92341   0.42218   0.25795   0.01267  Uiso   1.00
Zn2    Zn    0.21572   0.55778   0.23521   0.01267  Uiso   1.00
Zn3    Zn    0.50123   0.57782   0.24205   0.01267  Uiso   1.00
Zn4    Zn    0.65794   0.44222   0.26479   0.01267  Uiso   1.00
Zn5    Zn    0.07659   0.57782   0.74205   0.01267  Uiso   1.00
Zn6    Zn    0.78428   0.44222   0.76479   0.01267  Uiso   1.00
Zn7    Zn    0.49877   0.42218   0.75795   0.01267  Uiso   1.00
Zn8    Zn    0.34206   0.55778   0.73521   0.01267  Uiso   1.00
Si1    Si    0.89550   0.23976   0.95115   0.01267  Uiso   1.00
Si2    Si    0.65574   0.76024   0.54885   0.01267  Uiso   1.00
Si3    Si    0.10450   0.76024   0.04885   0.01267  Uiso   1.00
Si4    Si    0.34426   0.23976   0.45115   0.01267  Uiso   1.00
Si5    Si    0.90289   1.00000   0.25000   0.01267  Uiso   1.00
Si6    Si    0.09711   0.00000   0.75000   0.01267  Uiso   1.00
H1     H     0.80600   0.17820   0.04420   0.01267  Uiso   1.00
H2     H     0.85870   0.24420   0.12410   0.01267  Uiso   1.00
H3     H     0.15710   0.46280   0.08610   0.01267  Uiso   1.00
H4     H     0.10460   0.39960   0.00630   0.01267  Uiso   1.00
H5     H     0.76380   0.33980   0.00820   0.01267  Uiso   1.00
H6     H     0.63370   0.41180   0.99690   0.01267  Uiso   1.00
H7     H     0.61440   0.32580   0.85680   0.01267  Uiso   1.00
H8     H     0.75730   0.26140   0.86690   0.01267  Uiso   1.00
H9     H     0.55300   0.47040   0.88940   0.01267  Uiso   1.00
H10    H     0.44680   0.38540   0.91060   0.01267  Uiso   1.00
H11    H     0.53200   0.48080   0.94460   0.01267  Uiso   1.00
H12    H     0.99670   0.42200   0.90570   0.01267  Uiso   1.00
H13    H     0.14590   0.48920   0.85250   0.01267  Uiso   1.00
H14    H     0.23900   0.25900   0.85400   0.01267  Uiso   1.00
H15    H     0.08750   0.19120   0.90630   0.01267  Uiso   1.00
H16    H     0.77640   0.08400   0.87120   0.01267  Uiso   1.00
H17    H     0.73150   0.91880   0.85080   0.01267  Uiso   1.00
H18    H     0.86890   0.91100   0.97770   0.01267  Uiso   1.00
H19    H     0.91640   0.07840   0.99700   0.01267  Uiso   1.00
H20    H     0.79440   0.77380   0.86760   0.01267  Uiso   1.00
H21    H     0.82420   0.77080   0.92160   0.01267  Uiso   1.00
H22    H     0.69040   0.74420   0.90370   0.01267  Uiso   1.00
H23    H     0.80610   0.81060   0.29210   0.01267  Uiso   1.00
H24    H     0.85420   0.67540   0.29210   0.01267  Uiso   1.00
H25    H     0.13290   0.80120   0.21040   0.01267  Uiso   1.00
H26    H     0.08240   0.93520   0.20970   0.01267  Uiso   1.00
H27    H     0.94700   0.02960   0.14960   0.01267  Uiso   1.00
H28    H     0.83400   0.98760   0.07810   0.01267  Uiso   1.00
H29    H     0.53610   0.86040   0.14590   0.01267  Uiso   1.00
H30    H     0.64720   0.90240   0.21800   0.01267  Uiso   1.00
H31    H     0.64740   0.86740   0.03310   0.01267  Uiso   1.00
H32    H     0.52550   0.82960   0.05940   0.01267  Uiso   1.00
H33    H     0.58110   0.93800   0.04560   0.01267  Uiso   1.00
H34    H     0.62780   0.82180   0.45580   0.01267  Uiso   1.00
H35    H     0.61450   0.75580   0.37590   0.01267  Uiso   1.00
H36    H     0.69430   0.53720   0.41390   0.01267  Uiso   1.00
H37    H     0.70500   0.60040   0.49370   0.01267  Uiso   1.00
H38    H     0.42400   0.66020   0.49180   0.01267  Uiso   1.00
H39    H     0.22190   0.58820   0.50310   0.01267  Uiso   1.00
H40    H     0.28860   0.67420   0.64320   0.01267  Uiso   1.00
H41    H     0.49590   0.73860   0.63310   0.01267  Uiso   1.00
H42    H     0.08260   0.52960   0.61060   0.01267  Uiso   1.00
H43    H     0.06140   0.61460   0.58940   0.01267  Uiso   1.00
H44    H     0.05120   0.51920   0.55540   0.01267  Uiso   1.00
H45    H     0.57470   0.57800   0.59430   0.01267  Uiso   1.00
H46    H     0.65670   0.51080   0.64750   0.01267  Uiso   1.00
H47    H     0.98000   0.74100   0.64600   0.01267  Uiso   1.00
H48    H     0.89630   0.80880   0.59370   0.01267  Uiso   1.00
H49    H     0.69240   0.91600   0.62880   0.01267  Uiso   1.00
H50    H     0.81270   0.08120   0.64920   0.01267  Uiso   1.00
H51    H     0.95790   0.08900   0.52230   0.01267  Uiso   1.00
H52    H     0.83800   0.92160   0.50300   0.01267  Uiso   1.00
H53    H     0.02060   0.22620   0.63240   0.01267  Uiso   1.00
H54    H     0.05340   0.22920   0.57840   0.01267  Uiso   1.00
H55    H     0.94620   0.25580   0.59630   0.01267  Uiso   1.00
H56    H     0.99550   0.18940   0.20790   0.01267  Uiso   1.00
H57    H     0.17880   0.32460   0.20790   0.01267  Uiso   1.00
H58    H     0.33170   0.19880   0.28960   0.01267  Uiso   1.00
H59    H     0.14720   0.06480   0.29030   0.01267  Uiso   1.00
H60    H     0.91740   0.97040   0.35040   0.01267  Uiso   1.00
H61    H     0.84640   0.01240   0.42190   0.01267  Uiso   1.00
H62    H     0.67570   0.13960   0.35410   0.01267  Uiso   1.00
H63    H     0.74480   0.09760   0.28200   0.01267  Uiso   1.00
H64    H     0.78000   0.13260   0.46690   0.01267  Uiso   1.00
H65    H     0.69590   0.17040   0.44060   0.01267  Uiso   1.00
H66    H     0.64310   0.06200   0.45440   0.01267  Uiso   1.00
H67    H     0.19400   0.82180   0.95580   0.01267  Uiso   1.00
H68    H     0.14130   0.75580   0.87590   0.01267  Uiso   1.00
H69    H     0.84290   0.53720   0.91390   0.01267  Uiso   1.00
H70    H     0.89540   0.60040   0.99370   0.01267  Uiso   1.00
H71    H     0.23620   0.66020   0.99180   0.01267  Uiso   1.00
H72    H     0.36630   0.58820   0.00310   0.01267  Uiso   1.00
H73    H     0.38560   0.67420   0.14320   0.01267  Uiso   1.00
H74    H     0.24270   0.73860   0.13310   0.01267  Uiso   1.00
H75    H     0.44700   0.52960   0.11060   0.01267  Uiso   1.00
H76    H     0.55320   0.61460   0.08940   0.01267  Uiso   1.00
H77    H     0.46800   0.51920   0.05540   0.01267  Uiso   1.00
H78    H     0.00330   0.57800   0.09430   0.01267  Uiso   1.00
H79    H     0.85410   0.51080   0.14750   0.01267  Uiso   1.00
H80    H     0.76100   0.74100   0.14600   0.01267  Uiso   1.00
H81    H     0.91250   0.80880   0.09370   0.01267  Uiso   1.00
H82    H     0.22360   0.91600   0.12880   0.01267  Uiso   1.00
H83    H     0.26850   0.08120   0.14920   0.01267  Uiso   1.00
H84    H     0.13110   0.08900   0.02230   0.01267  Uiso   1.00
H85    H     0.08360   0.92160   0.00300   0.01267  Uiso   1.00
H86    H     0.20560   0.22620   0.13240   0.01267  Uiso   1.00
H87    H     0.17580   0.22920   0.07840   0.01267  Uiso   1.00
H88    H     0.30960   0.25580   0.09630   0.01267  Uiso   1.00
H89    H     0.19390   0.18940   0.70790   0.01267  Uiso   1.00
H90    H     0.14580   0.32460   0.70790   0.01267  Uiso   1.00
H91    H     0.86710   0.19880   0.78960   0.01267  Uiso   1.00
H92    H     0.91760   0.06480   0.79030   0.01267  Uiso   1.00
H93    H     0.05300   0.97040   0.85040   0.01267  Uiso   1.00
H94    H     0.16600   0.01240   0.92190   0.01267  Uiso   1.00
H95    H     0.46390   0.13960   0.85410   0.01267  Uiso   1.00
H96    H     0.35280   0.09760   0.78200   0.01267  Uiso   1.00
H97    H     0.35260   0.13260   0.96690   0.01267  Uiso   1.00
H98    H     0.47450   0.17040   0.94060   0.01267  Uiso   1.00
H99    H     0.41890   0.06200   0.95440   0.01267  Uiso   1.00
H100   H     0.37220   0.17820   0.54420   0.01267  Uiso   1.00
H101   H     0.38550   0.24420   0.62410   0.01267  Uiso   1.00
H102   H     0.30570   0.46280   0.58610   0.01267  Uiso   1.00
H103   H     0.29500   0.39960   0.50630   0.01267  Uiso   1.00
H104   H     0.57600   0.33980   0.50820   0.01267  Uiso   1.00
H105   H     0.77810   0.41180   0.49690   0.01267  Uiso   1.00
H106   H     0.71140   0.32580   0.35680   0.01267  Uiso   1.00
H107   H     0.50410   0.26140   0.36690   0.01267  Uiso   1.00
H108   H     0.91740   0.47040   0.38940   0.01267  Uiso   1.00
H109   H     0.93860   0.38540   0.41060   0.01267  Uiso   1.00
H110   H     0.94880   0.48080   0.44460   0.01267  Uiso   1.00
H111   H     0.42530   0.42200   0.40570   0.01267  Uiso   1.00
H112   H     0.34330   0.48920   0.35250   0.01267  Uiso   1.00
H113   H     0.02000   0.25900   0.35400   0.01267  Uiso   1.00
H114   H     0.10370   0.19120   0.40630   0.01267  Uiso   1.00
H115   H     0.30760   0.08400   0.37120   0.01267  Uiso   1.00
H116   H     0.18730   0.91880   0.35080   0.01267  Uiso   1.00
H117   H     0.04210   0.91100   0.47770   0.01267  Uiso   1.00
H118   H     0.16200   0.07840   0.49700   0.01267  Uiso   1.00
H119   H     0.97940   0.77380   0.36760   0.01267  Uiso   1.00
H120   H     0.94660   0.77080   0.42160   0.01267  Uiso   1.00
H121   H     0.05380   0.74420   0.40370   0.01267  Uiso   1.00
H122   H     0.00450   0.81060   0.79210   0.01267  Uiso   1.00
H123   H     0.82120   0.67540   0.79210   0.01267  Uiso   1.00
H124   H     0.66830   0.80120   0.71040   0.01267  Uiso   1.00
H125   H     0.85280   0.93520   0.70970   0.01267  Uiso   1.00
H126   H     0.08260   0.02960   0.64960   0.01267  Uiso   1.00
H127   H     0.15360   0.98760   0.57810   0.01267  Uiso   1.00
H128   H     0.32430   0.86040   0.64590   0.01267  Uiso   1.00
H129   H     0.25520   0.90240   0.71800   0.01267  Uiso   1.00
H130   H     0.22000   0.86740   0.53310   0.01267  Uiso   1.00
H131   H     0.30410   0.82960   0.55940   0.01267  Uiso   1.00
H132   H     0.35690   0.93800   0.54560   0.01267  Uiso   1.00
C1     C     0.94981   0.28102   0.01586   0.01267  Uiso   1.00
C2     C     0.87646   0.23572   0.05227   0.01267  Uiso   1.00
C3     C     0.90778   0.27556   0.10033   0.01267  Uiso   1.00
C4     C     0.01144   0.36148   0.11289   0.01267  Uiso   1.00
C5     C     0.08576   0.40632   0.07762   0.01267  Uiso   1.00
C6     C     0.05474   0.36748   0.02975   0.01267  Uiso   1.00
C7     C     0.04081   0.40802   0.16425   0.01267  Uiso   1.00
C8     C     0.77650   0.28740   0.94021   0.01267  Uiso   1.00
C9     C     0.73620   0.33680   0.97690   0.01267  Uiso   1.00
C10    C     0.65730   0.38200   0.97000   0.01267  Uiso   1.00
C11    C     0.61360   0.38440   0.92550   0.01267  Uiso   1.00
C12    C     0.64800   0.33240   0.88760   0.01267  Uiso   1.00
C13    C     0.73160   0.28920   0.89380   0.01267  Uiso   1.00
C14    C     0.52840   0.43500   0.91670   0.01267  Uiso   1.00
C15    C     0.02377   0.29834   0.91116   0.01267  Uiso   1.00
C16    C     0.04416   0.38832   0.89508   0.01267  Uiso   1.00
C17    C     0.13424   0.42928   0.86337   0.01267  Uiso   1.00
C18    C     0.20623   0.38026   0.84818   0.01267  Uiso   1.00
C19    C     0.18977   0.29134   0.86413   0.01267  Uiso   1.00
C20    C     0.09869   0.25098   0.89550   0.01267  Uiso   1.00
C21    C     0.29871   0.42102   0.81169   0.01267  Uiso   1.00
C22    C     0.84480   0.10020   0.93750   0.01267  Uiso   1.00
C23    C     0.79420   0.04980   0.89360   0.01267  Uiso   1.00
C24    C     0.76810   0.95000   0.88100   0.01267  Uiso   1.00
C25    C     0.79530   0.89540   0.91220   0.01267  Uiso   1.00
C26    C     0.84940   0.94500   0.95560   0.01267  Uiso   1.00
C27    C     0.87590   0.04600   0.96750   0.01267  Uiso   1.00
C28    C     0.77410   0.78580   0.90010   0.01267  Uiso   1.00
C29    C     0.94051   0.88922   0.25174   0.01267  Uiso   1.00
C30    C     0.87263   0.80946   0.27579   0.01267  Uiso   1.00
C31    C     0.90168   0.72836   0.27611   0.01267  Uiso   1.00
C32    C     0.00194   0.72608   0.25260   0.01267  Uiso   1.00
C33    C     0.06768   0.80316   0.22731   0.01267  Uiso   1.00
C34    C     0.03711   0.88382   0.22694   0.01267  Uiso   1.00
C35    C     0.03464   0.63928   0.25332   0.01267  Uiso   1.00
C36    C     0.80858   0.97816   0.19347   0.01267  Uiso   1.00
C37    C     0.86284   0.99808   0.14975   0.01267  Uiso   1.00
C38    C     0.79500   0.97240   0.10650   0.01267  Uiso   1.00
C39    C     0.67120   0.92460   0.10510   0.01267  Uiso   1.00
C40    C     0.61950   0.89760   0.14650   0.01267  Uiso   1.00
C41    C     0.68670   0.92320   0.19030   0.01267  Uiso   1.00
C42    C     0.59960   0.88640   0.05620   0.01267  Uiso   1.00
C43    C     0.66879   0.71898   0.48414   0.01267  Uiso   1.00
C44    C     0.64074   0.76428   0.44773   0.01267  Uiso   1.00
C45    C     0.63222   0.72444   0.39967   0.01267  Uiso   1.00
C46    C     0.64996   0.63852   0.38711   0.01267  Uiso   1.00
C47    C     0.67944   0.59368   0.42238   0.01267  Uiso   1.00
C48    C     0.68726   0.63252   0.47025   0.01267  Uiso   1.00
C49    C     0.63279   0.59198   0.33575   0.01267  Uiso   1.00
C50    C     0.48910   0.71260   0.55979   0.01267  Uiso   1.00
C51    C     0.39940   0.66320   0.52310   0.01267  Uiso   1.00
C52    C     0.27530   0.61800   0.53000   0.01267  Uiso   1.00
C53    C     0.22920   0.61560   0.57450   0.01267  Uiso   1.00
C54    C     0.31560   0.66760   0.61240   0.01267  Uiso   1.00
C55    C     0.44240   0.71080   0.60620   0.01267  Uiso   1.00
C56    C     0.09340   0.56500   0.58330   0.01267  Uiso   1.00
C57    C     0.72543   0.70166   0.58884   0.01267  Uiso   1.00
C58    C     0.65584   0.61168   0.60492   0.01267  Uiso   1.00
C59    C     0.70496   0.57072   0.63663   0.01267  Uiso   1.00
C60    C     0.82597   0.61974   0.65182   0.01267  Uiso   1.00
C61    C     0.89843   0.70866   0.63587   0.01267  Uiso   1.00
C62    C     0.84771   0.74902   0.60450   0.01267  Uiso   1.00
C63    C     0.87769   0.57898   0.68831   0.01267  Uiso   1.00
C64    C     0.74460   0.89980   0.56250   0.01267  Uiso   1.00
C65    C     0.74440   0.95020   0.60640   0.01267  Uiso   1.00
C66    C     0.81810   0.05000   0.61900   0.01267  Uiso   1.00
C67    C     0.89990   0.10460   0.58780   0.01267  Uiso   1.00
C68    C     0.90440   0.05500   0.54440   0.01267  Uiso   1.00
C69    C     0.82990   0.95400   0.53250   0.01267  Uiso   1.00
C70    C     0.98830   0.21420   0.59990   0.01267  Uiso   1.00
C71    C     0.05129   0.11078   0.24826   0.01267  Uiso   1.00
C72    C     0.06317   0.19054   0.22421   0.01267  Uiso   1.00
C73    C     0.17332   0.27164   0.22389   0.01267  Uiso   1.00
C74    C     0.27586   0.27392   0.24740   0.01267  Uiso   1.00
C75    C     0.26452   0.19684   0.27269   0.01267  Uiso   1.00
C76    C     0.15329   0.11618   0.27306   0.01267  Uiso   1.00
C77    C     0.39536   0.36072   0.24668   0.01267  Uiso   1.00
C78    C     0.83042   0.02184   0.30653   0.01267  Uiso   1.00
C79    C     0.86476   0.00192   0.35025   0.01267  Uiso   1.00
C80    C     0.82260   0.02760   0.39350   0.01267  Uiso   1.00
C81    C     0.74660   0.07540   0.39490   0.01267  Uiso   1.00
C82    C     0.72190   0.10240   0.35350   0.01267  Uiso   1.00
C83    C     0.76350   0.07680   0.30970   0.01267  Uiso   1.00
C84    C     0.71320   0.11360   0.44380   0.01267  Uiso   1.00
C85    C     0.05019   0.71898   0.98414   0.01267  Uiso   1.00
C86    C     0.12354   0.76428   0.94773   0.01267  Uiso   1.00
C87    C     0.09222   0.72444   0.89967   0.01267  Uiso   1.00
C88    C     0.98856   0.63852   0.88711   0.01267  Uiso   1.00
C89    C     0.91424   0.59368   0.92238   0.01267  Uiso   1.00
C90    C     0.94526   0.63252   0.97025   0.01267  Uiso   1.00
C91    C     0.95919   0.59198   0.83575   0.01267  Uiso   1.00
C92    C     0.22350   0.71260   0.05979   0.01267  Uiso   1.00
C93    C     0.26380   0.66320   0.02310   0.01267  Uiso   1.00
C94    C     0.34270   0.61800   0.03000   0.01267  Uiso   1.00
C95    C     0.38640   0.61560   0.07450   0.01267  Uiso   1.00
C96    C     0.35200   0.66760   0.11240   0.01267  Uiso   1.00
C97    C     0.26840   0.71080   0.10620   0.01267  Uiso   1.00
C98    C     0.47160   0.56500   0.08330   0.01267  Uiso   1.00
C99    C     0.97623   0.70166   0.08884   0.01267  Uiso   1.00
C100   C     0.95584   0.61168   0.10492   0.01267  Uiso   1.00
C101   C     0.86576   0.57072   0.13663   0.01267  Uiso   1.00
C102   C     0.79377   0.61974   0.15182   0.01267  Uiso   1.00
C103   C     0.81023   0.70866   0.13587   0.01267  Uiso   1.00
C104   C     0.90131   0.74902   0.10450   0.01267  Uiso   1.00
C105   C     0.70129   0.57898   0.18831   0.01267  Uiso   1.00
C106   C     0.15520   0.89980   0.06250   0.01267  Uiso   1.00
C107   C     0.20580   0.95020   0.10640   0.01267  Uiso   1.00
C108   C     0.23190   0.05000   0.11900   0.01267  Uiso   1.00
C109   C     0.20470   0.10460   0.08780   0.01267  Uiso   1.00
C110   C     0.15060   0.05500   0.04440   0.01267  Uiso   1.00
C111   C     0.12410   0.95400   0.03250   0.01267  Uiso   1.00
C112   C     0.22590   0.21420   0.09990   0.01267  Uiso   1.00
C113   C     0.05949   0.11078   0.74826   0.01267  Uiso   1.00
C114   C     0.12737   0.19054   0.72421   0.01267  Uiso   1.00
C115   C     0.09832   0.27164   0.72389   0.01267  Uiso   1.00
C116   C     0.99806   0.27392   0.74740   0.01267  Uiso   1.00
C117   C     0.93232   0.19684   0.77269   0.01267  Uiso   1.00
C118   C     0.96289   0.11618   0.77306   0.01267  Uiso   1.00
C119   C     0.96536   0.36072   0.74668   0.01267  Uiso   1.00
C120   C     0.19142   0.02184   0.80653   0.01267  Uiso   1.00
C121   C     0.13716   0.00192   0.85025   0.01267  Uiso   1.00
C122   C     0.20500   0.02760   0.89350   0.01267  Uiso   1.00
C123   C     0.32880   0.07540   0.89490   0.01267  Uiso   1.00
C124   C     0.38050   0.10240   0.85350   0.01267  Uiso   1.00
C125   C     0.31330   0.07680   0.80970   0.01267  Uiso   1.00
C126   C     0.40040   0.11360   0.94380   0.01267  Uiso   1.00
C127   C     0.33121   0.28102   0.51586   0.01267  Uiso   1.00
C128   C     0.35926   0.23572   0.55227   0.01267  Uiso   1.00
C129   C     0.36778   0.27556   0.60033   0.01267  Uiso   1.00
C130   C     0.35004   0.36148   0.61289   0.01267  Uiso   1.00
C131   C     0.32056   0.40632   0.57762   0.01267  Uiso   1.00
C132   C     0.31274   0.36748   0.52975   0.01267  Uiso   1.00
C133   C     0.36721   0.40802   0.66425   0.01267  Uiso   1.00
C134   C     0.51090   0.28740   0.44021   0.01267  Uiso   1.00
C135   C     0.60060   0.33680   0.47690   0.01267  Uiso   1.00
C136   C     0.72470   0.38200   0.47000   0.01267  Uiso   1.00
C137   C     0.77080   0.38440   0.42550   0.01267  Uiso   1.00
C138   C     0.68440   0.33240   0.38760   0.01267  Uiso   1.00
C139   C     0.55760   0.28920   0.39380   0.01267  Uiso   1.00
C140   C     0.90660   0.43500   0.41670   0.01267  Uiso   1.00
C141   C     0.27457   0.29834   0.41116   0.01267  Uiso   1.00
C142   C     0.34416   0.38832   0.39508   0.01267  Uiso   1.00
C143   C     0.29504   0.42928   0.36337   0.01267  Uiso   1.00
C144   C     0.17403   0.38026   0.34818   0.01267  Uiso   1.00
C145   C     0.10157   0.29134   0.36413   0.01267  Uiso   1.00
C146   C     0.15229   0.25098   0.39550   0.01267  Uiso   1.00
C147   C     0.12231   0.42102   0.31169   0.01267  Uiso   1.00
C148   C     0.25540   0.10020   0.43750   0.01267  Uiso   1.00
C149   C     0.25560   0.04980   0.39360   0.01267  Uiso   1.00
C150   C     0.18190   0.95000   0.38100   0.01267  Uiso   1.00
C151   C     0.10010   0.89540   0.41220   0.01267  Uiso   1.00
C152   C     0.09560   0.94500   0.45560   0.01267  Uiso   1.00
C153   C     0.17010   0.04600   0.46750   0.01267  Uiso   1.00
C154   C     0.01170   0.78580   0.40010   0.01267  Uiso   1.00
C155   C     0.94871   0.88922   0.75174   0.01267  Uiso   1.00
C156   C     0.93683   0.80946   0.77579   0.01267  Uiso   1.00
C157   C     0.82668   0.72836   0.77611   0.01267  Uiso   1.00
C158   C     0.72414   0.72608   0.75260   0.01267  Uiso   1.00
C159   C     0.73548   0.80316   0.72731   0.01267  Uiso   1.00
C160   C     0.84671   0.88382   0.72694   0.01267  Uiso   1.00
C161   C     0.60464   0.63928   0.75332   0.01267  Uiso   1.00
C162   C     0.16958   0.97816   0.69347   0.01267  Uiso   1.00
C163   C     0.13524   0.99808   0.64975   0.01267  Uiso   1.00
C164   C     0.17740   0.97240   0.60650   0.01267  Uiso   1.00
C165   C     0.25340   0.92460   0.60510   0.01267  Uiso   1.00
C166   C     0.27810   0.89760   0.64650   0.01267  Uiso   1.00
C167   C     0.23650   0.92320   0.69030   0.01267  Uiso   1.00
C168   C     0.28680   0.88640   0.55620   0.01267  Uiso   1.00
O1     O     0.95376   0.38352   0.19213   0.01267  Uiso   1.00
O2     O     0.14813   0.46746   0.17606   0.01267  Uiso   1.00
O3     O     0.36813   0.37866   0.80151   0.01267  Uiso   1.00
O4     O     0.29996   0.49532   0.79403   0.01267  Uiso   1.00
O5     O     0.95961   0.56422   0.26979   0.01267  Uiso   1.00
O6     O     0.13492   0.64824   0.23720   0.01267  Uiso   1.00
O7     O     0.75277   0.36582   0.26536   0.01267  Uiso   1.00
O8     O     0.57024   0.61648   0.30787   0.01267  Uiso   1.00
O9     O     0.68067   0.53254   0.32394   0.01267  Uiso   1.00
O10    O     0.98947   0.62134   0.69849   0.01267  Uiso   1.00
O11    O     0.80464   0.50468   0.70597   0.01267  Uiso   1.00
O12    O     0.39539   0.43578   0.23021   0.01267  Uiso   1.00
O13    O     0.48668   0.35176   0.26280   0.01267  Uiso   1.00
O14    O     0.38695   0.63418   0.23464   0.01267  Uiso   1.00
O15    O     0.04624   0.61648   0.80787   0.01267  Uiso   1.00
O16    O     0.85187   0.53254   0.82394   0.01267  Uiso   1.00
O17    O     0.63187   0.62134   0.19849   0.01267  Uiso   1.00
O18    O     0.70004   0.50468   0.20597   0.01267  Uiso   1.00
O19    O     0.04039   0.43578   0.73021   0.01267  Uiso   1.00
O20    O     0.86508   0.35176   0.76280   0.01267  Uiso   1.00
O21    O     0.24723   0.63418   0.73464   0.01267  Uiso   1.00
O22    O     0.42976   0.38352   0.69213   0.01267  Uiso   1.00
O23    O     0.31933   0.46746   0.67606   0.01267  Uiso   1.00
O24    O     0.01053   0.37866   0.30151   0.01267  Uiso   1.00
O25    O     0.19536   0.49532   0.29403   0.01267  Uiso   1.00
O26    O     0.60461   0.56422   0.76979   0.01267  Uiso   1.00
O27    O     0.51332   0.64824   0.73720   0.01267  Uiso   1.00
O28    O     0.61305   0.36582   0.76536   0.01267  Uiso   1.00
