data_XUJCUB_clean
_audit_creation_date              2014-07-02
_audit_creation_method            'Materials Studio'
_symmetry_space_group_name_H-M    'P1'
_symmetry_Int_Tables_number       1
_symmetry_cell_setting            triclinic
loop_
_symmetry_equiv_pos_as_xyz
  x,y,z
_cell_length_a                    6.3072
_cell_length_b                    7.9461
_cell_length_c                    7.9461
_cell_angle_alpha                 108.4660
_cell_angle_beta                  91.4492
_cell_angle_gamma                 91.4492
loop_
_atom_site_label
_atom_site_type_symbol
_atom_site_fract_x
_atom_site_fract_y
_atom_site_fract_z
_atom_site_U_iso_or_equiv
_atom_site_adp_type
_atom_site_occupancy
Ni1    Ni    0.75000   0.92725   0.07275   0.01267  Uiso   1.00
Ni2    Ni    0.25000   0.07275   0.92725   0.01267  Uiso   1.00
H1     H     0.03500   0.00200   0.27800   0.01267  Uiso   1.00
H2     H     0.72400   0.09000   0.51000   0.01267  Uiso   1.00
H3     H     0.82800   0.22500   0.42900   0.01267  Uiso   1.00
H4     H     0.02600   0.72700   0.28500   0.01267  Uiso   1.00
H5     H     0.84500   0.78700   0.42700   0.01267  Uiso   1.00
H6     H     0.46500   0.72200   0.99800   0.01267  Uiso   1.00
H7     H     0.77600   0.49000   0.91000   0.01267  Uiso   1.00
H8     H     0.67200   0.57100   0.77500   0.01267  Uiso   1.00
H9     H     0.47400   0.71500   0.27300   0.01267  Uiso   1.00
H10    H     0.65500   0.57300   0.21300   0.01267  Uiso   1.00
H11    H     0.96500   0.99800   0.72200   0.01267  Uiso   1.00
H12    H     0.27600   0.91000   0.49000   0.01267  Uiso   1.00
H13    H     0.17200   0.77500   0.57100   0.01267  Uiso   1.00
H14    H     0.97400   0.27300   0.71500   0.01267  Uiso   1.00
H15    H     0.15500   0.21300   0.57300   0.01267  Uiso   1.00
H16    H     0.53500   0.27800   0.00200   0.01267  Uiso   1.00
H17    H     0.22400   0.51000   0.09000   0.01267  Uiso   1.00
H18    H     0.32800   0.42900   0.22500   0.01267  Uiso   1.00
H19    H     0.52600   0.28500   0.72700   0.01267  Uiso   1.00
H20    H     0.34500   0.42700   0.78700   0.01267  Uiso   1.00
C1     C     0.85660   0.12350   0.46810   0.01267  Uiso   1.00
C2     C     0.97440   0.82350   0.38290   0.01267  Uiso   1.00
C3     C     0.64340   0.53190   0.87650   0.01267  Uiso   1.00
C4     C     0.52560   0.61710   0.17650   0.01267  Uiso   1.00
C5     C     0.14340   0.87650   0.53190   0.01267  Uiso   1.00
C6     C     0.02560   0.17650   0.61710   0.01267  Uiso   1.00
C7     C     0.35660   0.46810   0.12350   0.01267  Uiso   1.00
C8     C     0.47440   0.38290   0.82350   0.01267  Uiso   1.00
N1     N     0.92220   0.97239   0.31621   0.01267  Uiso   1.00
N2     N     0.57780   0.68379   0.02761   0.01267  Uiso   1.00
N3     N     0.07780   0.02761   0.68379   0.01267  Uiso   1.00
N4     N     0.42220   0.31621   0.97239   0.01267  Uiso   1.00
Cl1    Cl    0.06563   0.78868   0.92382   0.01267  Uiso   1.00
Cl2    Cl    0.43437   0.07618   0.21132   0.01267  Uiso   1.00
Cl3    Cl    0.93437   0.21132   0.07618   0.01267  Uiso   1.00
Cl4    Cl    0.56563   0.92382   0.78868   0.01267  Uiso   1.00
