data_XUMFIV_clean
_audit_creation_date              2014-07-02
_audit_creation_method            'Materials Studio'
_symmetry_space_group_name_H-M    'P1'
_symmetry_Int_Tables_number       1
_symmetry_cell_setting            triclinic
loop_
_symmetry_equiv_pos_as_xyz
  x,y,z
_cell_length_a                    11.4060
_cell_length_b                    12.4530
_cell_length_c                    13.7590
_cell_angle_alpha                 110.4520
_cell_angle_beta                  101.8780
_cell_angle_gamma                 108.2140
loop_
_atom_site_label
_atom_site_type_symbol
_atom_site_fract_x
_atom_site_fract_y
_atom_site_fract_z
_atom_site_U_iso_or_equiv
_atom_site_adp_type
_atom_site_occupancy
Cu1    Cu    0.50000   0.50000   0.50000   0.01267  Uiso   1.00
Cu2    Cu    0.50000  -0.00000   1.00000   0.01267  Uiso   1.00
Cu3    Cu    0.50000   0.50000   1.00000   0.01267  Uiso   1.00
H1     H     0.53330   0.28550   0.53200   0.01267  Uiso   1.00
H2     H     0.41680   0.10560   0.54700   0.01267  Uiso   1.00
H3     H     0.11720   0.21470   0.54710   0.01267  Uiso   1.00
H4     H     0.24050   0.38700   0.52480   0.01267  Uiso   1.00
H5     H     0.51330   0.17120   0.89810   0.01267  Uiso   1.00
H6     H     0.40350   0.18370   0.74280   0.01267  Uiso   1.00
H7     H     0.13070   0.82980   0.64020   0.01267  Uiso   1.00
H8     H     0.24760   0.82600   0.79560   0.01267  Uiso   1.00
H9     H     0.78320   0.18030   0.04040   0.01267  Uiso   1.00
H10    H     0.94150   0.18070   0.96160   0.01267  Uiso   1.00
H11    H     0.70000   0.82220   0.73120   0.01267  Uiso   1.00
H12    H     0.54360   0.83380   0.81470   0.01267  Uiso   1.00
H13    H     0.35560   0.29280   0.05500   0.01267  Uiso   1.00
H14    H     0.16050   0.10960   0.97340   0.01267  Uiso   1.00
H15    H     0.05320   0.19820   0.72290   0.01267  Uiso   1.00
H16    H     0.25140   0.37410   0.80740   0.01267  Uiso   1.00
H17    H     0.46670   0.71450   0.46800   0.01267  Uiso   1.00
H18    H     0.58320   0.89440   0.45300   0.01267  Uiso   1.00
H19    H     0.88280   0.78530   0.45290   0.01267  Uiso   1.00
H20    H     0.75950   0.61300   0.47520   0.01267  Uiso   1.00
H21    H     0.48670   0.82880   0.10190   0.01267  Uiso   1.00
H22    H     0.59650   0.81630   0.25720   0.01267  Uiso   1.00
H23    H     0.86930   0.17020   0.35980   0.01267  Uiso   1.00
H24    H     0.75240   0.17400   0.20440   0.01267  Uiso   1.00
H25    H     0.21680   0.81970   0.95960   0.01267  Uiso   1.00
H26    H     0.05850   0.81930   0.03840   0.01267  Uiso   1.00
H27    H     0.30000   0.17780   0.26880   0.01267  Uiso   1.00
H28    H     0.45640   0.16620   0.18530   0.01267  Uiso   1.00
H29    H     0.64440   0.70720   0.94500   0.01267  Uiso   1.00
H30    H     0.83950   0.89040   0.02660   0.01267  Uiso   1.00
H31    H     0.94680   0.80180   0.27710   0.01267  Uiso   1.00
H32    H     0.74860   0.62590   0.19260   0.01267  Uiso   1.00
C1     C     0.44680   0.26950   0.53360   0.01267  Uiso   1.00
C2     C     0.37910   0.16290   0.54370   0.01267  Uiso   1.00
C3     C     0.25270   0.14190   0.54900   0.01267  Uiso   1.00
C4     C     0.20210   0.22620   0.54290   0.01267  Uiso   1.00
C5     C     0.27680   0.32940   0.53040   0.01267  Uiso   1.00
C6     C     0.43490   0.10050   0.84430   0.01267  Uiso   1.00
C7     C     0.37020   0.10920   0.75210   0.01267  Uiso   1.00
C8     C     0.25550   0.00580   0.67370   0.01267  Uiso   1.00
C9     C     0.21010   0.90080   0.69190   0.01267  Uiso   1.00
C10    C     0.27990   0.89940   0.78470   0.01267  Uiso   1.00
C11    C     0.76560   0.10690   0.97640   0.01267  Uiso   1.00
C12    C     0.86050   0.10770   0.93030   0.01267  Uiso   1.00
C13    C     0.83850   0.00220   0.83780   0.01267  Uiso   1.00
C14    C     0.71840   0.89710   0.79420   0.01267  Uiso   1.00
C15    C     0.62630   0.90480   0.84540   0.01267  Uiso   1.00
C16    C     0.29440   0.27220   0.98590   0.01267  Uiso   1.00
C17    C     0.17770   0.16300   0.93800   0.01267  Uiso   1.00
C18    C     0.08750   0.13330   0.83840   0.01267  Uiso   1.00
C19    C     0.11490   0.21470   0.79010   0.01267  Uiso   1.00
C20    C     0.23250   0.31940   0.84150   0.01267  Uiso   1.00
C21    C     0.75700   0.60830   0.69750   0.01267  Uiso   1.00
C22    C     0.55320   0.73050   0.46640   0.01267  Uiso   1.00
C23    C     0.62090   0.83710   0.45630   0.01267  Uiso   1.00
C24    C     0.74730   0.85810   0.45100   0.01267  Uiso   1.00
C25    C     0.79790   0.77380   0.45710   0.01267  Uiso   1.00
C26    C     0.72320   0.67060   0.46960   0.01267  Uiso   1.00
C27    C     0.56510   0.89950   0.15570   0.01267  Uiso   1.00
C28    C     0.62980   0.89080   0.24790   0.01267  Uiso   1.00
C29    C     0.74450   0.99420   0.32630   0.01267  Uiso   1.00
C30    C     0.78990   0.09920   0.30810   0.01267  Uiso   1.00
C31    C     0.72010   0.10060   0.21530   0.01267  Uiso   1.00
C32    C     0.23440   0.89310   0.02360   0.01267  Uiso   1.00
C33    C     0.13950   0.89230   0.06970   0.01267  Uiso   1.00
C34    C     0.16150   0.99780   0.16220   0.01267  Uiso   1.00
C35    C     0.28160   0.10290   0.20580   0.01267  Uiso   1.00
C36    C     0.37370   0.09520   0.15460   0.01267  Uiso   1.00
C37    C     0.70560   0.72780   0.01410   0.01267  Uiso   1.00
C38    C     0.82230   0.83700   0.06200   0.01267  Uiso   1.00
C39    C     0.91250   0.86670   0.16160   0.01267  Uiso   1.00
C40    C     0.88510   0.78530   0.20990   0.01267  Uiso   1.00
C41    C     0.76750   0.68060   0.15850   0.01267  Uiso   1.00
C42    C     0.24300   0.39170   0.30250   0.01267  Uiso   1.00
S1     S     0.15605   0.00328   0.55553   0.01267  Uiso   1.00
S2     S     0.94621   0.98715   0.76378   0.01267  Uiso   1.00
S3     S     0.90320   0.68230   0.78910   0.01267  Uiso   1.00
S4     S     0.84395   0.99672   0.44447   0.01267  Uiso   1.00
S5     S     0.05379   0.01285   0.23622   0.01267  Uiso   1.00
S6     S     0.09680   0.31770   0.21090   0.01267  Uiso   1.00
N1     N     0.39690   0.35080   0.52590   0.01267  Uiso   1.00
N2     N     0.39270   0.99780   0.86150   0.01267  Uiso   1.00
N3     N     0.64750   0.00680   0.93580   0.01267  Uiso   1.00
N4     N     0.32360   0.34940   0.93830   0.01267  Uiso   1.00
N5     N     0.65210   0.55700   0.63210   0.01267  Uiso   1.00
N6     N     0.60310   0.64920   0.47410   0.01267  Uiso   1.00
N7     N     0.60730   0.00220   0.13850   0.01267  Uiso   1.00
N8     N     0.35250   0.99320   0.06420   0.01267  Uiso   1.00
N9     N     0.67640   0.65060   0.06170   0.01267  Uiso   1.00
N10    N     0.34790   0.44300   0.36790   0.01267  Uiso   1.00
