data_XUWVEQ_clean
_audit_creation_date              2014-07-02
_audit_creation_method            'Materials Studio'
_symmetry_space_group_name_H-M    'P1'
_symmetry_Int_Tables_number       1
_symmetry_cell_setting            triclinic
loop_
_symmetry_equiv_pos_as_xyz
  x,y,z
_cell_length_a                    5.0484
_cell_length_b                    8.2547
_cell_length_c                    12.3699
_cell_angle_alpha                 90.0000
_cell_angle_beta                  90.0000
_cell_angle_gamma                 92.0640
loop_
_atom_site_label
_atom_site_type_symbol
_atom_site_fract_x
_atom_site_fract_y
_atom_site_fract_z
_atom_site_U_iso_or_equiv
_atom_site_adp_type
_atom_site_occupancy
Ga1    Ga    0.50000  -0.00000   0.50000   0.01267  Uiso   1.00
Ga2    Ga    0.50000  -0.00000   0.00000   0.01267  Uiso   1.00
Ga3    Ga    0.77070   0.85470   0.75000   0.01267  Uiso   1.00
Ga4    Ga    0.22930   0.14530   0.25000   0.01267  Uiso   1.00
P1     P     0.99190   0.76670   0.51400   0.01267  Uiso   1.00
P2     P     0.00810   0.23330   0.01400   0.01267  Uiso   1.00
P3     P     0.00810   0.23330   0.48600   0.01267  Uiso   1.00
P4     P     0.99190   0.76670   0.98600   0.01267  Uiso   1.00
C1     C     0.91400   0.55800   0.47360   0.01267  Uiso   1.00
C2     C     0.08600   0.44200   0.97360   0.01267  Uiso   1.00
C3     C     0.08600   0.44200   0.52640   0.01267  Uiso   1.00
C4     C     0.91400   0.55800   0.02640   0.01267  Uiso   1.00
O1     O     0.27900   0.79450   0.48150   0.01267  Uiso   1.00
O2     O     0.79800   0.87300   0.46040   0.01267  Uiso   1.00
O3     O     0.98600   0.76930   0.63690   0.01267  Uiso   1.00
O4     O     0.72100   0.20550   0.98150   0.01267  Uiso   1.00
O5     O     0.20200   0.12700   0.96040   0.01267  Uiso   1.00
O6     O     0.01400   0.23070   0.13690   0.01267  Uiso   1.00
O7     O     0.72100   0.20550   0.51850   0.01267  Uiso   1.00
O8     O     0.20200   0.12700   0.53960   0.01267  Uiso   1.00
O9     O     0.01400   0.23070   0.36310   0.01267  Uiso   1.00
O10    O     0.27900   0.79450   0.01850   0.01267  Uiso   1.00
O11    O     0.79800   0.87300   0.03960   0.01267  Uiso   1.00
O12    O     0.98600   0.76930   0.86310   0.01267  Uiso   1.00
F1     F     0.54200   0.95650   0.65110   0.01267  Uiso   1.00
F2     F     0.45800   0.04350   0.15110   0.01267  Uiso   1.00
F3     F     0.45800   0.04350   0.34890   0.01267  Uiso   1.00
F4     F     0.54200   0.95650   0.84890   0.01267  Uiso   1.00
