data_YAQDIF_clean
_audit_creation_date              2014-07-02
_audit_creation_method            'Materials Studio'
_symmetry_space_group_name_H-M    'P1'
_symmetry_Int_Tables_number       1
_symmetry_cell_setting            triclinic
loop_
_symmetry_equiv_pos_as_xyz
  x,y,z
_cell_length_a                    16.7824
_cell_length_b                    17.1313
_cell_length_c                    17.1313
_cell_angle_alpha                 76.1181
_cell_angle_beta                  60.6714
_cell_angle_gamma                 60.6714
loop_
_atom_site_label
_atom_site_type_symbol
_atom_site_fract_x
_atom_site_fract_y
_atom_site_fract_z
_atom_site_U_iso_or_equiv
_atom_site_adp_type
_atom_site_occupancy
Cd1    Cd    0.62500   0.25000   0.25000   0.01267  Uiso   1.00
Cd2    Cd    0.37500   0.75000   0.75000   0.01267  Uiso   1.00
H1     H     0.63810   0.99490   0.27370   0.01267  Uiso   1.00
H2     H     0.67140   0.86280   0.22920   0.01267  Uiso   1.00
H3     H     0.62630   0.75950   0.33170   0.01267  Uiso   1.00
H4     H     0.53420   0.79160   0.48000   0.01267  Uiso   1.00
H5     H     0.40670   0.50510   0.22630   0.01267  Uiso   1.00
H6     H     0.26340   0.63720   0.27080   0.01267  Uiso   1.00
H7     H     0.21750   0.74050   0.16830   0.01267  Uiso   1.00
H8     H     0.30580   0.70840   0.02000   0.01267  Uiso   1.00
H9     H     0.41180   0.72630   0.49490   0.01267  Uiso   1.00
H10    H     0.40060   0.77080   0.36280   0.01267  Uiso   1.00
H11    H     0.45800   0.66830   0.25950   0.01267  Uiso   1.00
H12    H     0.51420   0.52000   0.29160   0.01267  Uiso   1.00
H13    H     0.13300   0.77370   0.00510   0.01267  Uiso   1.00
H14    H     0.03420   0.72920   0.13720   0.01267  Uiso   1.00
H15    H     0.88580   0.83170   0.24050   0.01267  Uiso   1.00
H16    H     0.82580   0.98000   0.20840   0.01267  Uiso   1.00
H17    H     0.36190   0.00510   0.72630   0.01267  Uiso   1.00
H18    H     0.32860   0.13720   0.77080   0.01267  Uiso   1.00
H19    H     0.37370   0.24050   0.66830   0.01267  Uiso   1.00
H20    H     0.46580   0.20840   0.52000   0.01267  Uiso   1.00
H21    H     0.59330   0.49490   0.77370   0.01267  Uiso   1.00
H22    H     0.73660   0.36280   0.72920   0.01267  Uiso   1.00
H23    H     0.78250   0.25950   0.83170   0.01267  Uiso   1.00
H24    H     0.69420   0.29160   0.98000   0.01267  Uiso   1.00
H25    H     0.58820   0.27370   0.50510   0.01267  Uiso   1.00
H26    H     0.59940   0.22920   0.63720   0.01267  Uiso   1.00
H27    H     0.54200   0.33170   0.74050   0.01267  Uiso   1.00
H28    H     0.48580   0.48000   0.70840   0.01267  Uiso   1.00
H29    H     0.86700   0.22630   0.99490   0.01267  Uiso   1.00
H30    H     0.96580   0.27080   0.86280   0.01267  Uiso   1.00
H31    H     0.11420   0.16830   0.75950   0.01267  Uiso   1.00
H32    H     0.17420   0.02000   0.79160   0.01267  Uiso   1.00
C1     C     0.56845   0.12642   0.37028   0.01267  Uiso   1.00
C2     C     0.53212   0.06151   0.43825   0.01267  Uiso   1.00
C3     C     0.55782   0.98036   0.40820   0.01267  Uiso   1.00
C4     C     0.61514   0.95613   0.31619   0.01267  Uiso   1.00
C5     C     0.63660   0.87630   0.28990   0.01267  Uiso   1.00
C6     C     0.60775   0.81445   0.35165   0.01267  Uiso   1.00
C7     C     0.55366   0.83329   0.43959   0.01267  Uiso   1.00
C8     C     0.47399   0.08339   0.52903   0.01267  Uiso   1.00
C9     C     0.56515   0.37358   0.12972   0.01267  Uiso   1.00
C10    C     0.53188   0.43849   0.06175   0.01267  Uiso   1.00
C11    C     0.44638   0.51964   0.09180   0.01267  Uiso   1.00
C12    C     0.38746   0.54387   0.18381   0.01267  Uiso   1.00
C13    C     0.30280   0.62370   0.21010   0.01267  Uiso   1.00
C14    C     0.27385   0.68555   0.14835   0.01267  Uiso   1.00
C15    C     0.32654   0.66671   0.06041   0.01267  Uiso   1.00
C16    C     0.58641   0.41661   0.97097   0.01267  Uiso   1.00
C17    C     0.43873   0.62972   0.62642   0.01267  Uiso   1.00
C18    C     0.47037   0.56175   0.56151   0.01267  Uiso   1.00
C19    C     0.46602   0.59180   0.48036   0.01267  Uiso   1.00
C20    C     0.43133   0.68381   0.45613   0.01267  Uiso   1.00
C21    C     0.42650   0.71010   0.37630   0.01267  Uiso   1.00
C22    C     0.45940   0.64835   0.31445   0.01267  Uiso   1.00
C23    C     0.49325   0.56041   0.33329   0.01267  Uiso   1.00
C24    C     0.50302   0.47097   0.58339   0.01267  Uiso   1.00
C25    C     0.19487   0.87028   0.87358   0.01267  Uiso   1.00
C26    C     0.09363   0.93825   0.93849   0.01267  Uiso   1.00
C27    C     0.03818   0.90820   0.01964   0.01267  Uiso   1.00
C28    C     0.07127   0.81619   0.04387   0.01267  Uiso   1.00
C29    C     0.01290   0.78990   0.12370   0.01267  Uiso   1.00
C30    C     0.92220   0.85165   0.18555   0.01267  Uiso   1.00
C31    C     0.88695   0.93959   0.16671   0.01267  Uiso   1.00
C32    C     0.05738   0.02903   0.91661   0.01267  Uiso   1.00
C33    C     0.43155   0.87358   0.62972   0.01267  Uiso   1.00
C34    C     0.46788   0.93849   0.56175   0.01267  Uiso   1.00
C35    C     0.44218   0.01964   0.59180   0.01267  Uiso   1.00
C36    C     0.38486   0.04387   0.68381   0.01267  Uiso   1.00
C37    C     0.36340   0.12370   0.71010   0.01267  Uiso   1.00
C38    C     0.39225   0.18555   0.64835   0.01267  Uiso   1.00
C39    C     0.44634   0.16671   0.56041   0.01267  Uiso   1.00
C40    C     0.52601   0.91661   0.47097   0.01267  Uiso   1.00
C41    C     0.43485   0.62642   0.87028   0.01267  Uiso   1.00
C42    C     0.46812   0.56151   0.93825   0.01267  Uiso   1.00
C43    C     0.55362   0.48036   0.90820   0.01267  Uiso   1.00
C44    C     0.61254   0.45613   0.81619   0.01267  Uiso   1.00
C45    C     0.69720   0.37630   0.78990   0.01267  Uiso   1.00
C46    C     0.72615   0.31445   0.85165   0.01267  Uiso   1.00
C47    C     0.67346   0.33329   0.93959   0.01267  Uiso   1.00
C48    C     0.41359   0.58339   0.02903   0.01267  Uiso   1.00
C49    C     0.56127   0.37028   0.37358   0.01267  Uiso   1.00
C50    C     0.52963   0.43825   0.43849   0.01267  Uiso   1.00
C51    C     0.53398   0.40820   0.51964   0.01267  Uiso   1.00
C52    C     0.56867   0.31619   0.54387   0.01267  Uiso   1.00
C53    C     0.57350   0.28990   0.62370   0.01267  Uiso   1.00
C54    C     0.54060   0.35165   0.68555   0.01267  Uiso   1.00
C55    C     0.50675   0.43959   0.66671   0.01267  Uiso   1.00
C56    C     0.49698   0.52903   0.41661   0.01267  Uiso   1.00
C57    C     0.80513   0.12972   0.12642   0.01267  Uiso   1.00
C58    C     0.90637   0.06175   0.06151   0.01267  Uiso   1.00
C59    C     0.96182   0.09180   0.98036   0.01267  Uiso   1.00
C60    C     0.92873   0.18381   0.95613   0.01267  Uiso   1.00
C61    C     0.98710   0.21010   0.87630   0.01267  Uiso   1.00
C62    C     0.07780   0.14835   0.81445   0.01267  Uiso   1.00
C63    C     0.11305   0.06041   0.83329   0.01267  Uiso   1.00
C64    C     0.94262   0.97097   0.08339   0.01267  Uiso   1.00
O1     O     0.64398   0.13017   0.36117   0.01267  Uiso   1.00
O2     O     0.51822   0.17526   0.32760   0.01267  Uiso   1.00
O3     O     0.63532   0.36983   0.13883   0.01267  Uiso   1.00
O4     O     0.52108   0.32474   0.17240   0.01267  Uiso   1.00
O5     O     0.50515   0.63883   0.63017   0.01267  Uiso   1.00
O6     O     0.34582   0.67240   0.67526   0.01267  Uiso   1.00
O7     O     0.27415   0.86117   0.86983   0.01267  Uiso   1.00
O8     O     0.19348   0.82760   0.82474   0.01267  Uiso   1.00
O9     O     0.35602   0.86983   0.63883   0.01267  Uiso   1.00
O10    O     0.48178   0.82474   0.67240   0.01267  Uiso   1.00
O11    O     0.36468   0.63017   0.86117   0.01267  Uiso   1.00
O12    O     0.47892   0.67526   0.82760   0.01267  Uiso   1.00
O13    O     0.49485   0.36117   0.36983   0.01267  Uiso   1.00
O14    O     0.65418   0.32760   0.32474   0.01267  Uiso   1.00
O15    O     0.72585   0.13883   0.13017   0.01267  Uiso   1.00
O16    O     0.80652   0.17240   0.17526   0.01267  Uiso   1.00
Cd3    Cd    0.87500   0.75000   0.75000   0.01267  Uiso   1.00
Cd4    Cd    0.12500   0.25000   0.25000   0.01267  Uiso   1.00
H33    H     0.09330   0.77370   0.49490   0.01267  Uiso   1.00
H34    H     0.23660   0.72920   0.36280   0.01267  Uiso   1.00
H35    H     0.28250   0.83170   0.25950   0.01267  Uiso   1.00
H36    H     0.19420   0.98000   0.29160   0.01267  Uiso   1.00
H37    H     0.86190   0.72630   0.00510   0.01267  Uiso   1.00
H38    H     0.82860   0.77080   0.13720   0.01267  Uiso   1.00
H39    H     0.87370   0.66830   0.24050   0.01267  Uiso   1.00
H40    H     0.96580   0.52000   0.20840   0.01267  Uiso   1.00
H41    H     0.36700   0.99490   0.22630   0.01267  Uiso   1.00
H42    H     0.46580   0.86280   0.27080   0.01267  Uiso   1.00
H43    H     0.61420   0.75950   0.16830   0.01267  Uiso   1.00
H44    H     0.67420   0.79160   0.02000   0.01267  Uiso   1.00
H45    H     0.08820   0.50510   0.27370   0.01267  Uiso   1.00
H46    H     0.09940   0.63720   0.22920   0.01267  Uiso   1.00
H47    H     0.04200   0.74050   0.33170   0.01267  Uiso   1.00
H48    H     0.98580   0.70840   0.48000   0.01267  Uiso   1.00
H49    H     0.90670   0.22630   0.50510   0.01267  Uiso   1.00
H50    H     0.76340   0.27080   0.63720   0.01267  Uiso   1.00
H51    H     0.71750   0.16830   0.74050   0.01267  Uiso   1.00
H52    H     0.80580   0.02000   0.70840   0.01267  Uiso   1.00
H53    H     0.13810   0.27370   0.99490   0.01267  Uiso   1.00
H54    H     0.17140   0.22920   0.86280   0.01267  Uiso   1.00
H55    H     0.12630   0.33170   0.75950   0.01267  Uiso   1.00
H56    H     0.03420   0.48000   0.79160   0.01267  Uiso   1.00
H57    H     0.63300   0.00510   0.77370   0.01267  Uiso   1.00
H58    H     0.53420   0.13720   0.72920   0.01267  Uiso   1.00
H59    H     0.38580   0.24050   0.83170   0.01267  Uiso   1.00
H60    H     0.32580   0.20840   0.98000   0.01267  Uiso   1.00
H61    H     0.91180   0.49490   0.72630   0.01267  Uiso   1.00
H62    H     0.90060   0.36280   0.77080   0.01267  Uiso   1.00
H63    H     0.95800   0.25950   0.66830   0.01267  Uiso   1.00
H64    H     0.01420   0.29160   0.52000   0.01267  Uiso   1.00
C65    C     0.93485   0.87028   0.62642   0.01267  Uiso   1.00
C66    C     0.96812   0.93825   0.56151   0.01267  Uiso   1.00
C67    C     0.05362   0.90820   0.48036   0.01267  Uiso   1.00
C68    C     0.11254   0.81619   0.45613   0.01267  Uiso   1.00
C69    C     0.19720   0.78990   0.37630   0.01267  Uiso   1.00
C70    C     0.22615   0.85165   0.31445   0.01267  Uiso   1.00
C71    C     0.17346   0.93959   0.33329   0.01267  Uiso   1.00
C72    C     0.91359   0.02903   0.58339   0.01267  Uiso   1.00
C73    C     0.93155   0.62972   0.87358   0.01267  Uiso   1.00
C74    C     0.96788   0.56175   0.93849   0.01267  Uiso   1.00
C75    C     0.94218   0.59180   0.01964   0.01267  Uiso   1.00
C76    C     0.88486   0.68381   0.04387   0.01267  Uiso   1.00
C77    C     0.86340   0.71010   0.12370   0.01267  Uiso   1.00
C78    C     0.89225   0.64835   0.18555   0.01267  Uiso   1.00
C79    C     0.94634   0.56041   0.16671   0.01267  Uiso   1.00
C80    C     0.02601   0.47097   0.91661   0.01267  Uiso   1.00
C81    C     0.30513   0.12642   0.12972   0.01267  Uiso   1.00
C82    C     0.40637   0.06151   0.06175   0.01267  Uiso   1.00
C83    C     0.46182   0.98036   0.09180   0.01267  Uiso   1.00
C84    C     0.42873   0.95613   0.18381   0.01267  Uiso   1.00
C85    C     0.48710   0.87630   0.21010   0.01267  Uiso   1.00
C86    C     0.57780   0.81445   0.14835   0.01267  Uiso   1.00
C87    C     0.61305   0.83329   0.06041   0.01267  Uiso   1.00
C88    C     0.44262   0.08339   0.97097   0.01267  Uiso   1.00
C89    C     0.06127   0.37358   0.37028   0.01267  Uiso   1.00
C90    C     0.02963   0.43849   0.43825   0.01267  Uiso   1.00
C91    C     0.03398   0.51964   0.40820   0.01267  Uiso   1.00
C92    C     0.06867   0.54387   0.31619   0.01267  Uiso   1.00
C93    C     0.07350   0.62370   0.28990   0.01267  Uiso   1.00
C94    C     0.04060   0.68555   0.35165   0.01267  Uiso   1.00
C95    C     0.00675   0.66671   0.43959   0.01267  Uiso   1.00
C96    C     0.99698   0.41661   0.52903   0.01267  Uiso   1.00
C97    C     0.06515   0.12972   0.37358   0.01267  Uiso   1.00
C98    C     0.03188   0.06175   0.43849   0.01267  Uiso   1.00
C99    C     0.94638   0.09180   0.51964   0.01267  Uiso   1.00
C100   C     0.88746   0.18381   0.54387   0.01267  Uiso   1.00
C101   C     0.80280   0.21010   0.62370   0.01267  Uiso   1.00
C102   C     0.77385   0.14835   0.68555   0.01267  Uiso   1.00
C103   C     0.82654   0.06041   0.66671   0.01267  Uiso   1.00
C104   C     0.08641   0.97097   0.41661   0.01267  Uiso   1.00
C105   C     0.06845   0.37028   0.12642   0.01267  Uiso   1.00
C106   C     0.03212   0.43825   0.06151   0.01267  Uiso   1.00
C107   C     0.05782   0.40820   0.98036   0.01267  Uiso   1.00
C108   C     0.11514   0.31619   0.95613   0.01267  Uiso   1.00
C109   C     0.13660   0.28990   0.87630   0.01267  Uiso   1.00
C110   C     0.10775   0.35165   0.81445   0.01267  Uiso   1.00
C111   C     0.05366   0.43959   0.83329   0.01267  Uiso   1.00
C112   C     0.97399   0.52903   0.08339   0.01267  Uiso   1.00
C113   C     0.69487   0.87358   0.87028   0.01267  Uiso   1.00
C114   C     0.59363   0.93849   0.93825   0.01267  Uiso   1.00
C115   C     0.53818   0.01964   0.90820   0.01267  Uiso   1.00
C116   C     0.57127   0.04387   0.81619   0.01267  Uiso   1.00
C117   C     0.51290   0.12370   0.78990   0.01267  Uiso   1.00
C118   C     0.42220   0.18555   0.85165   0.01267  Uiso   1.00
C119   C     0.38695   0.16671   0.93959   0.01267  Uiso   1.00
C120   C     0.55738   0.91661   0.02903   0.01267  Uiso   1.00
C121   C     0.93873   0.62642   0.62972   0.01267  Uiso   1.00
C122   C     0.97037   0.56151   0.56175   0.01267  Uiso   1.00
C123   C     0.96602   0.48036   0.59180   0.01267  Uiso   1.00
C124   C     0.93133   0.45613   0.68381   0.01267  Uiso   1.00
C125   C     0.92650   0.37630   0.71010   0.01267  Uiso   1.00
C126   C     0.95940   0.31445   0.64835   0.01267  Uiso   1.00
C127   C     0.99325   0.33329   0.56041   0.01267  Uiso   1.00
C128   C     0.00302   0.58339   0.47097   0.01267  Uiso   1.00
O17    O     0.86468   0.86117   0.63017   0.01267  Uiso   1.00
O18    O     0.97892   0.82760   0.67526   0.01267  Uiso   1.00
O19    O     0.85602   0.63883   0.86983   0.01267  Uiso   1.00
O20    O     0.98178   0.67240   0.82474   0.01267  Uiso   1.00
O21    O     0.22585   0.13017   0.13883   0.01267  Uiso   1.00
O22    O     0.30652   0.17526   0.17240   0.01267  Uiso   1.00
O23    O     0.99485   0.36983   0.36117   0.01267  Uiso   1.00
O24    O     0.15418   0.32474   0.32760   0.01267  Uiso   1.00
O25    O     0.13532   0.13883   0.36983   0.01267  Uiso   1.00
O26    O     0.02108   0.17240   0.32474   0.01267  Uiso   1.00
O27    O     0.14398   0.36117   0.13017   0.01267  Uiso   1.00
O28    O     0.01822   0.32760   0.17526   0.01267  Uiso   1.00
O29    O     0.77415   0.86983   0.86117   0.01267  Uiso   1.00
O30    O     0.69348   0.82474   0.82760   0.01267  Uiso   1.00
O31    O     0.00515   0.63017   0.63883   0.01267  Uiso   1.00
O32    O     0.84582   0.67526   0.67240   0.01267  Uiso   1.00
