data_YAQZAT_ion_b
_audit_creation_date              2014-07-02
_audit_creation_method            'Materials Studio'
_symmetry_space_group_name_H-M    'P1'
_symmetry_Int_Tables_number       1
_symmetry_cell_setting            triclinic
loop_
_symmetry_equiv_pos_as_xyz
  x,y,z
_cell_length_a                    9.1844
_cell_length_b                    21.6150
_cell_length_c                    11.5401
_cell_angle_alpha                 90.0000
_cell_angle_beta                  112.7010
_cell_angle_gamma                 90.0000
loop_
_atom_site_label
_atom_site_type_symbol
_atom_site_fract_x
_atom_site_fract_y
_atom_site_fract_z
_atom_site_U_iso_or_equiv
_atom_site_adp_type
_atom_site_occupancy
U1     U     0.25388   0.24934   0.25795   0.00000  Uiso   1.00
U2     U     0.55603   0.99537   0.37873   0.00000  Uiso   1.00
O3     O     0.63111   0.04846   0.24770   0.00000  Uiso   1.00
O4     O     0.09209   0.33615   0.21027   0.00000  Uiso   1.00
O5     O     0.41493   0.16210   0.30493   0.00000  Uiso   1.00
O6     O     0.04956   0.18555   0.19700   0.00000  Uiso   1.00
O7     O     0.45793   0.31308   0.31906   0.00000  Uiso   1.00
O8     O     0.69322   0.21750   0.91921   0.00000  Uiso   1.00
O9     O     0.60269   0.09110   0.29810   0.00000  Uiso   1.00
O10    O     0.90126   0.40543   0.20828   0.00000  Uiso   1.00
O11    O     0.67286   0.21097   0.55965   0.00000  Uiso   1.00
O12    O     0.80542   0.99381   0.51328   0.00000  Uiso   1.00
O13    O     0.81214   0.28413   0.59434   0.00000  Uiso   1.00
O14    O     0.30671  -0.00313   0.24382   0.00000  Uiso   1.00
O15    O     0.83238   0.29075   0.95758   0.00000  Uiso   1.00
O16    O     0.49672   0.93305   0.50624   0.00000  Uiso   1.00
C17    C     0.74024   0.24632   0.51096   0.00000  Uiso   1.00
C18    C     0.76503   0.25441   0.00441   0.00000  Uiso   1.00
C19    C     0.95447   0.34806   0.21511   0.00000  Uiso   1.00
C20    C     0.55218   0.15013   0.29936   0.00000  Uiso   1.00
C21    C     0.74029   0.24578   0.37869   0.00000  Uiso   1.00
C22    C     0.76561   0.25341   0.13671   0.00000  Uiso   1.00
C23    C     0.65447   0.20242   0.28181   0.00000  Uiso   1.00
C24    C     0.85230   0.29623   0.23377   0.00000  Uiso   1.00
C25    C     0.83265   0.29224   0.34996   0.00000  Uiso   1.00
H26    H     0.89152   0.32671   0.42019   0.00000  Uiso   1.00
C27    C     0.67385   0.20668   0.16533   0.00000  Uiso   1.00
H28    H     0.61500   0.17238   0.09464   0.00000  Uiso   1.00
N29    N     0.58230   0.43676   0.24836   0.00000  Uiso   1.00
U30    U     0.25455   0.74922   0.24363   0.00000  Uiso   1.00
U31    U     0.95213   0.49544   0.12270   0.00000  Uiso   1.00
O32    O     0.87677   0.54852   0.25359   0.00000  Uiso   1.00
O33    O     0.41617   0.83604   0.29133   0.00000  Uiso   1.00
O34    O     0.09356   0.66200   0.19681   0.00000  Uiso   1.00
O35    O     0.45904   0.68552   0.30454   0.00000  Uiso   1.00
O36    O     0.05043   0.81291   0.18258   0.00000  Uiso   1.00
O37    O     0.81553   0.71748   0.58256   0.00000  Uiso   1.00
O38    O     0.90554   0.59111   0.20347   0.00000  Uiso   1.00
O39    O     0.60676   0.90534   0.29315   0.00000  Uiso   1.00
O40    O     0.83615   0.71099   0.94225   0.00000  Uiso   1.00
O41    O     0.70288   0.49409  -0.01245   0.00000  Uiso   1.00
O42    O     0.69616   0.78395   0.90729   0.00000  Uiso   1.00
O43    O     0.20121   0.49678   0.25808   0.00000  Uiso   1.00
O44    O     0.67567   0.79052   0.54406   0.00000  Uiso   1.00
O45    O     0.01171   0.43311  -0.00464   0.00000  Uiso   1.00
C46    C     0.76836   0.74625   0.99078   0.00000  Uiso   1.00
C47    C     0.74340   0.75431   0.49732   0.00000  Uiso   1.00
C48    C     0.55375   0.84796   0.28648   0.00000  Uiso   1.00
C49    C     0.95627   0.65011   0.20235   0.00000  Uiso   1.00
C50    C     0.76826   0.74573   0.12302   0.00000  Uiso   1.00
C51    C     0.74290   0.75337   0.36501   0.00000  Uiso   1.00
C52    C     0.85418   0.70243   0.21998   0.00000  Uiso   1.00
C53    C     0.65600   0.79614   0.26786   0.00000  Uiso   1.00
C54    C     0.67572   0.79215   0.15168   0.00000  Uiso   1.00
H55    H     0.61684   0.82662   0.08143   0.00000  Uiso   1.00
C56    C     0.83486   0.70670   0.33646   0.00000  Uiso   1.00
H57    H     0.89377   0.67241   0.40717   0.00000  Uiso   1.00
N58    N    -0.07946   0.93666   0.25033   0.00000  Uiso   1.00
U59    U     0.75461   0.75181   0.74373   0.00000  Uiso   1.00
U60    U     0.45242   0.00576   0.62279   0.00000  Uiso   1.00
O61    O     0.37690   0.95269   0.75361   0.00000  Uiso   1.00
O62    O     0.91638   0.66502   0.79134   0.00000  Uiso   1.00
O63    O     0.59360   0.83907   0.69675   0.00000  Uiso   1.00
O64    O     0.95898   0.81556   0.80439   0.00000  Uiso   1.00
O65    O     0.55052   0.68806   0.68303   0.00000  Uiso   1.00
O66    O     0.31542   0.78364   0.08246   0.00000  Uiso   1.00
O67    O     0.40571   0.91006   0.70343   0.00000  Uiso   1.00
O68    O     0.10707   0.59576   0.79317   0.00000  Uiso   1.00
O69    O     0.33586   0.79016   0.44205   0.00000  Uiso   1.00
O70    O     0.20315   0.00726   0.48787   0.00000  Uiso   1.00
O71    O     0.19628   0.71710   0.40730   0.00000  Uiso   1.00
O72    O     0.70163   1.00427   0.75798   0.00000  Uiso   1.00
O73    O     0.17594   0.71049   0.04400   0.00000  Uiso   1.00
O74    O     0.51197   0.06808   0.49542   0.00000  Uiso   1.00
C75    C     0.26838   0.75485   0.49073   0.00000  Uiso   1.00
C76    C     0.24348   0.74678   0.99724   0.00000  Uiso   1.00
C77    C     0.05397   0.65312   0.78646   0.00000  Uiso   1.00
C78    C     0.45631   0.85104   0.70229   0.00000  Uiso   1.00
C79    C     0.26829   0.75539   0.62298   0.00000  Uiso   1.00
C80    C     0.24292   0.74775   0.86493   0.00000  Uiso   1.00
C81    C     0.35410   0.79874   0.71987   0.00000  Uiso   1.00
C82    C     0.15618   0.70494   0.76785   0.00000  Uiso   1.00
C83    C     0.17589   0.70893   0.65168   0.00000  Uiso   1.00
H84    H     0.11695   0.67447   0.58141   0.00000  Uiso   1.00
C85    C     0.33478   0.79445   0.83635   0.00000  Uiso   1.00
H86    H     0.39374   0.82873   0.90706   0.00000  Uiso   1.00
N87    N     0.40430   0.55533   0.71854   0.00000  Uiso   1.00
U88    U     0.75395   0.25197   0.75803   0.00000  Uiso   1.00
U89    U     0.05613   0.50580   0.87879   0.00000  Uiso   1.00
O90    O     0.13094   0.45276   0.74759   0.00000  Uiso   1.00
O91    O     0.59235   0.16513   0.71031   0.00000  Uiso   1.00
O92    O     0.91492   0.33918   0.80484   0.00000  Uiso   1.00
O93    O     0.54937   0.31564   0.69702   0.00000  Uiso   1.00
O94    O     0.95822   0.18838   0.81925   0.00000  Uiso   1.00
O95    O     0.19256   0.28357   0.41900   0.00000  Uiso   1.00
O96    O     0.10269   0.41012   0.79797   0.00000  Uiso   1.00
O97    O     0.40169   0.09583   0.70836   0.00000  Uiso   1.00
O98    O     0.17241   0.29021   0.05947   0.00000  Uiso   1.00
O99    O     0.30557   0.50724   1.01335   0.00000  Uiso   1.00
O100   O     0.31274   0.21735   0.09450   0.00000  Uiso   1.00
O101   O     0.80672   0.50450   0.74392   0.00000  Uiso   1.00
O102   O     0.33277   0.21062   0.45762   0.00000  Uiso   1.00
O103   O     0.99702   0.56813   1.00639   0.00000  Uiso   1.00
C104   C     0.24039   0.25502   0.01095   0.00000  Uiso   1.00
C105   C     0.26485   0.24679   0.50429   0.00000  Uiso   1.00
C106   C     0.45477   0.15321   0.71514   0.00000  Uiso   1.00
C107   C     0.05217   0.35110   0.79925   0.00000  Uiso   1.00
C108   C     0.24051   0.25554   0.87871   0.00000  Uiso   1.00
C109   C     0.26547   0.24776   0.63662   0.00000  Uiso   1.00
C110   C     0.15438   0.29879   0.78169   0.00000  Uiso   1.00
C111   C     0.35254   0.20505   0.73379   0.00000  Uiso   1.00
C112   C     0.33311   0.20913   0.85008   0.00000  Uiso   1.00
H113   H     0.39216   0.17472   0.92039   0.00000  Uiso   1.00
C114   C     0.17353   0.29444   0.66514   0.00000  Uiso   1.00
H115   H     0.11450   0.32868   0.59440   0.00000  Uiso   1.00
N116   N     1.07748   0.06957   0.73454   0.00000  Uiso   1.00
H117   H     0.57449   0.40259   0.18223   0.00000  Uiso   1.00
H118   H     0.47430   0.44043   0.25819   0.00000  Uiso   1.00
H119   H     0.60989   0.47906   0.21820   0.00000  Uiso   1.00
H120   H     0.49278   0.56083   0.68359   0.00000  Uiso   1.00
H121   H     0.29444   0.56380   0.64692   0.00000  Uiso   1.00
H122   H     0.42275   0.58647   0.79207   0.00000  Uiso   1.00
H123   H     1.06624   0.10300   0.66624   0.00000  Uiso   1.00
H124   H     0.97128   0.06590   0.74727   0.00000  Uiso   1.00
H125   H     1.16734   0.08238   0.81925   0.00000  Uiso   1.00
H126   H     0.02231   0.93733   0.23061   0.00000  Uiso   1.00
H127   H    -0.09446   0.97983   0.28477   0.00000  Uiso   1.00
H128   H    -0.06834   0.90275   0.31770   0.00000  Uiso   1.00
H129   H     0.40742   0.51016   0.75153   0.00000  Uiso   1.00
H130   H     0.67036   0.42497   0.33477   0.00000  Uiso   1.00
H131   H     1.10494   0.02694   0.70553   0.00000  Uiso   1.00
H132   H    -0.17709   0.92681   0.16827   0.00000  Uiso   1.00
loop_
_geom_bond_atom_site_label_1
_geom_bond_atom_site_label_2
_geom_bond_distance
_geom_bond_site_symmetry_2
_ccdc_geom_bond_type
U1     O4      2.324   .     S
U1     O5      2.328   .     S
U1     O6      2.213   .     S
U1     O7      2.211   .     S
U1     O95     2.264   .     S
U1     O98     2.294   .     S
U1     O100    2.262   .     S
U1     O102    2.290   .     S
U2     O12     2.217   .     S
U2     O16     2.213   .     S
U2     O39     2.310   .     S
U2     O3      2.210   1_565 S
U2     O9      2.375   1_565 S
U2     O14     2.217   1_565 S
U2     O74     2.206   1_565 S
O3     U2      2.210   1_545 S
O4     C19     1.312   1_455 S
O5     C20     1.312   .     A
O8     U88     2.264   .     S
O8     C18     1.240   1_556 S
O9     C20     1.360   .     A
O9     U2      2.375   1_545 S
O10    C19     1.324   .     A
O10    U31     2.310   .     S
O11    C17     1.245   .     A
O11    U88     2.295   .     S
O13    C17     1.241   .     A
O13    U88     2.262   .     S
O14    U2      2.217   1_545 S
O15    U88     2.290   .     S
O15    C18     1.245   1_556 S
O16    U60     2.206   1_565 S
C17    C21     1.527   .     S
C18    C22     1.525   .     S
C18    O8      1.240   1_554 S
C18    O15     1.245   1_554 S
C19    C24     1.529   .     S
C19    O4      1.312   1_655 S
C20    C23     1.532   .     S
C21    C23     1.439   .     A
C21    C25     1.434   .     A
C22    C24     1.434   .     A
C22    C27     1.433   .     A
C23    C27     1.425   .     A
C24    C25     1.423   .     A
C25    H26     1.080   .     S
C27    H28     1.080   .     S
N29    H117    1.044   .     S
N29    H118    1.044   .     S
N29    H119    1.044   .     S
N29    H130    1.044   .     S
U30    O33     2.323   .     S
U30    O34     2.327   .     S
U30    O35     2.213   .     S
U30    O36     2.211   .     S
U30    O66     2.264   .     S
U30    O69     2.294   .     S
U30    O71     2.262   .     S
U30    O73     2.290   .     S
U31    O32     2.210   .     S
U31    O38     2.374   .     S
U31    O41     2.218   .     S
U31    O43     2.217   1_655 A
U31    O45     2.212   1_655 S
U31    O103    2.206   1_554 A
O33    C48     1.312   .     A
O34    C49     1.312   1_455 S
O37    C47     1.240   .     A
O37    U59     2.264   .     S
O38    C49     1.360   .     A
O39    C48     1.324   .     A
O40    C46     1.246   .     A
O40    U59     2.294   .     S
O42    C46     1.241   .     A
O42    U59     2.262   .     S
O43    U31     2.217   1_455 A
O44    C47     1.245   .     A
O44    U59     2.290   .     S
O45    U31     2.212   1_455 S
O45    U89     2.206   1_554 S
C46    C50     1.526   1_556 S
C47    C51     1.525   .     S
C48    C53     1.529   .     S
C49    C52     1.532   .     S
C49    O34     1.312   1_655 S
C50    C52     1.438   .     A
C50    C54     1.434   .     A
C50    C46     1.526   1_554 S
C51    C53     1.435   .     A
C51    C56     1.433   .     A
C52    C56     1.425   .     A
C53    C54     1.423   .     A
C54    H55     1.080   .     S
C56    H57     1.080   .     S
N58    H126    1.044   .     S
N58    H127    1.044   .     S
N58    H128    1.044   .     S
N58    H132    1.044   .     S
U59    O62     2.323   .     S
U59    O63     2.328   .     S
U59    O64     2.213   .     S
U59    O65     2.211   .     S
U60    O70     2.217   .     S
U60    O74     2.212   .     S
U60    O97     2.310   .     S
U60    O16     2.206   1_545 S
U60    O61     2.210   1_545 A
U60    O67     2.374   1_545 A
U60    O72     2.218   1_545 A
O61    U60     2.210   1_565 A
O62    C77     1.312   1_655 A
O63    C78     1.313   .     A
O66    C76     1.240   1_554 A
O67    C78     1.360   .     A
O67    U60     2.374   1_565 A
O68    C77     1.324   .     A
O68    U89     2.309   .     S
O69    C75     1.245   .     A
O71    C75     1.241   .     A
O72    U60     2.218   1_565 A
O73    C76     1.245   1_554 S
O74    U2      2.206   1_545 S
C75    C79     1.527   .     S
C76    C80     1.525   .     S
C76    O66     1.240   1_556 A
C76    O73     1.245   1_556 S
C77    C82     1.529   .     S
C77    O62     1.312   1_455 A
C78    C81     1.532   .     S
C79    C81     1.438   .     A
C79    C83     1.434   .     A
C80    C82     1.434   .     A
C80    C85     1.433   .     A
C81    C85     1.425   .     A
C82    C83     1.423   .     A
C83    H84     1.080   .     S
C85    H86     1.080   .     S
N87    H120    1.044   .     S
N87    H121    1.045   .     S
N87    H122    1.044   .     S
N87    H129    1.044   .     S
U88    O91     2.323   .     S
U88    O92     2.327   .     S
U88    O93     2.213   .     S
U88    O94     2.210   .     S
U89    O90     2.209   .     S
U89    O96     2.374   .     S
U89    O99     2.217   .     S
U89    O45     2.206   1_556 S
U89    O101    2.218   1_455 S
U89    O103    2.213   1_455 S
O91    C106    1.312   .     A
O92    C107    1.312   1_655 S
O95    C105    1.240   .     A
O96    C107    1.360   .     A
O97    C106    1.324   .     A
O98    C104    1.246   .     A
O100   C104    1.241   .     A
O101   U89     2.218   1_655 S
O102   C105    1.245   .     A
O103   U31     2.206   1_556 A
O103   U89     2.213   1_655 S
C104   C108    1.527   1_554 S
C105   C109    1.525   .     S
C106   C111    1.530   .     S
C107   C110    1.532   .     S
C107   O92     1.312   1_455 S
C108   C110    1.439   .     A
C108   C112    1.434   .     A
C108   C104    1.527   1_556 S
C109   C111    1.434   .     A
C109   C114    1.433   .     A
C110   C114    1.425   .     A
C111   C112    1.423   .     A
C112   H113    1.080   .     S
C114   H115    1.080   .     S
N116   H123    1.045   .     S
N116   H124    1.044   .     S
N116   H125    1.044   .     S
N116   H131    1.044   .     S
