data_YAXBOP_clean
_audit_creation_date              2014-07-02
_audit_creation_method            'Materials Studio'
_symmetry_space_group_name_H-M    'P1'
_symmetry_Int_Tables_number       1
_symmetry_cell_setting            triclinic
loop_
_symmetry_equiv_pos_as_xyz
  x,y,z
_cell_length_a                    6.8890
_cell_length_b                    11.0730
_cell_length_c                    11.0969
_cell_angle_alpha                 119.9290
_cell_angle_beta                  105.7990
_cell_angle_gamma                 90.0000
loop_
_atom_site_label
_atom_site_type_symbol
_atom_site_fract_x
_atom_site_fract_y
_atom_site_fract_z
_atom_site_U_iso_or_equiv
_atom_site_adp_type
_atom_site_occupancy
Fe1    Fe    0.00000   0.00000   0.00000   0.01267  Uiso   1.00
Fe2    Fe    0.50000   1.00000   0.00000   0.01267  Uiso   1.00
H1     H     0.66260   0.40070   0.41760   0.01267  Uiso   1.00
H2     H     0.21240   0.39580   0.36140   0.01267  Uiso   1.00
H3     H     0.83740   0.98310   0.58240   0.01267  Uiso   1.00
H4     H     0.28760   0.03440   0.63860   0.01267  Uiso   1.00
H5     H     0.33740   0.59930   0.58240   0.01267  Uiso   1.00
H6     H     0.78760   0.60420   0.63860   0.01267  Uiso   1.00
H7     H     0.16260   0.01690   0.41760   0.01267  Uiso   1.00
H8     H     0.71240   0.96560   0.36140   0.01267  Uiso   1.00
C1     C     0.92190   0.37610   0.36300   0.01267  Uiso   1.00
C2     C     0.79900   0.44090   0.45040   0.01267  Uiso   1.00
C3     C     0.84350   0.24250   0.21700   0.01267  Uiso   1.00
C4     C     0.12600   0.43800   0.41700   0.01267  Uiso   1.00
C5     C     0.57810   0.01310   0.63700   0.01267  Uiso   1.00
C6     C     0.70100   0.99050   0.54960   0.01267  Uiso   1.00
C7     C     0.65650   0.02550   0.78300   0.01267  Uiso   1.00
C8     C     0.37400   0.02100   0.58300   0.01267  Uiso   1.00
C9     C     0.07810   0.62390   0.63700   0.01267  Uiso   1.00
C10    C     0.20100   0.55910   0.54960   0.01267  Uiso   1.00
C11    C     0.15650   0.75750   0.78300   0.01267  Uiso   1.00
C12    C     0.87400   0.56200   0.58300   0.01267  Uiso   1.00
C13    C     0.42190   0.98690   0.36300   0.01267  Uiso   1.00
C14    C     0.29900   0.00950   0.45040   0.01267  Uiso   1.00
C15    C     0.34350   0.97450   0.21700   0.01267  Uiso   1.00
C16    C     0.62600   0.97900   0.41700   0.01267  Uiso   1.00
O1     O     0.96090   0.19720   0.14240   0.01267  Uiso   1.00
O2     O     0.65630   0.18940   0.17760   0.01267  Uiso   1.00
O3     O     0.53910   0.05480   0.85760   0.01267  Uiso   1.00
O4     O     0.84370   0.01180   0.82240   0.01267  Uiso   1.00
O5     O     0.03910   0.80280   0.85760   0.01267  Uiso   1.00
O6     O     0.34370   0.81060   0.82240   0.01267  Uiso   1.00
O7     O     0.46090   0.94520   0.14240   0.01267  Uiso   1.00
O8     O     0.15630   0.98820   0.17760   0.01267  Uiso   1.00
O9     O     0.25000   0.08180   0.00000   0.01267  Uiso   1.00
O10    O     0.75000   0.91820   0.00000   0.01267  Uiso   1.00
