data_YECNEB_charged
_audit_creation_date              2014-07-02
_audit_creation_method            'Materials Studio'
_symmetry_space_group_name_H-M    'P1'
_symmetry_Int_Tables_number       1
_symmetry_cell_setting            triclinic
loop_
_symmetry_equiv_pos_as_xyz
  x,y,z
_cell_length_a                    12.5800
_cell_length_b                    13.7985
_cell_length_c                    17.9230
_cell_angle_alpha                 80.7944
_cell_angle_beta                  69.4550
_cell_angle_gamma                 62.8806
loop_
_atom_site_label
_atom_site_type_symbol
_atom_site_fract_x
_atom_site_fract_y
_atom_site_fract_z
_atom_site_U_iso_or_equiv
_atom_site_adp_type
_atom_site_occupancy
Ag1    Ag    0.56257   0.33834   0.97360   0.01267  Uiso   1.00
Ag2    Ag    0.46383   0.16166   0.97360   0.01267  Uiso   1.00
Ag3    Ag    0.59909   0.33834   0.52640   0.01267  Uiso   1.00
Ag4    Ag    0.87451   0.16166   0.52640   0.01267  Uiso   1.00
Ag5    Ag    0.43743   0.66166   0.02640   0.01267  Uiso   1.00
Ag6    Ag    0.53617   0.83834   0.02640   0.01267  Uiso   1.00
Ag7    Ag    0.40091   0.66166   0.47360   0.01267  Uiso   1.00
Ag8    Ag    0.12549   0.83834   0.47360   0.01267  Uiso   1.00
H1     H     0.69490   0.24940   0.10540   0.01267  Uiso   1.00
H2     H     0.88650   0.15240   0.11880   0.01267  Uiso   1.00
H3     H     0.26480   0.96360   0.13200   0.01267  Uiso   1.00
H4     H     0.83360   0.22780   0.87620   0.01267  Uiso   1.00
H5     H     0.07050   0.06860   0.12680   0.01267  Uiso   1.00
H6     H     0.03090   0.13280   0.88380   0.01267  Uiso   1.00
H7     H     0.40130   0.96460   0.90220   0.01267  Uiso   1.00
H8     H     0.20550   0.05800   0.89260   0.01267  Uiso   1.00
H9     H     0.19970   0.25060   0.10540   0.01267  Uiso   1.00
H10    H     0.99470   0.34760   0.11880   0.01267  Uiso   1.00
H11    H     0.60320   0.53640   0.13200   0.01267  Uiso   1.00
H12    H     0.29020   0.27220   0.87620   0.01267  Uiso   1.00
H13    H     0.80270   0.43140   0.12680   0.01267  Uiso   1.00
H14    H     0.08530   0.36720   0.88380   0.01267  Uiso   1.00
H15    H     0.69650   0.53540   0.90220   0.01267  Uiso   1.00
H16    H     0.90190   0.44200   0.89260   0.01267  Uiso   1.00
H17    H     0.55570   0.24940   0.39460   0.01267  Uiso   1.00
H18    H     0.46110   0.15240   0.38120   0.01267  Uiso   1.00
H19    H     0.27160   0.96360   0.36800   0.01267  Uiso   1.00
H20    H     0.43860   0.22780   0.62380   0.01267  Uiso   1.00
H21    H     0.36090   0.06860   0.37320   0.01267  Uiso   1.00
H22    H     0.33630   0.13280   0.61620   0.01267  Uiso   1.00
H23    H     0.13410   0.96460   0.59780   0.01267  Uiso   1.00
H24    H     0.23650   0.05800   0.60740   0.01267  Uiso   1.00
H25    H     0.04970   0.25060   0.39460   0.01267  Uiso   1.00
H26    H     0.15770   0.34760   0.38120   0.01267  Uiso   1.00
H27    H     0.36040   0.53640   0.36800   0.01267  Uiso   1.00
H28    H     0.93760   0.27220   0.62380   0.01267  Uiso   1.00
H29    H     0.26590   0.43140   0.37320   0.01267  Uiso   1.00
H30    H     0.04750   0.36720   0.61620   0.01267  Uiso   1.00
H31    H     0.26810   0.53540   0.59780   0.01267  Uiso   1.00
H32    H     0.15610   0.44200   0.60740   0.01267  Uiso   1.00
H33    H     0.30510   0.75060   0.89460   0.01267  Uiso   1.00
H34    H     0.11350   0.84760   0.88120   0.01267  Uiso   1.00
H35    H     0.73520   0.03640   0.86800   0.01267  Uiso   1.00
H36    H     0.16640   0.77220   0.12380   0.01267  Uiso   1.00
H37    H     0.92950   0.93140   0.87320   0.01267  Uiso   1.00
H38    H     0.96910   0.86720   0.11620   0.01267  Uiso   1.00
H39    H     0.59870   0.03540   0.09780   0.01267  Uiso   1.00
H40    H     0.79450   0.94200   0.10740   0.01267  Uiso   1.00
H41    H     0.80030   0.74940   0.89460   0.01267  Uiso   1.00
H42    H     0.00530   0.65240   0.88120   0.01267  Uiso   1.00
H43    H     0.39680   0.46360   0.86800   0.01267  Uiso   1.00
H44    H     0.70980   0.72780   0.12380   0.01267  Uiso   1.00
H45    H     0.19730   0.56860   0.87320   0.01267  Uiso   1.00
H46    H     0.91470   0.63280   0.11620   0.01267  Uiso   1.00
H47    H     0.30350   0.46460   0.09780   0.01267  Uiso   1.00
H48    H     0.09810   0.55800   0.10740   0.01267  Uiso   1.00
H49    H     0.44430   0.75060   0.60540   0.01267  Uiso   1.00
H50    H     0.53890   0.84760   0.61880   0.01267  Uiso   1.00
H51    H     0.72840   0.03640   0.63200   0.01267  Uiso   1.00
H52    H     0.56140   0.77220   0.37620   0.01267  Uiso   1.00
H53    H     0.63910   0.93140   0.62680   0.01267  Uiso   1.00
H54    H     0.66370   0.86720   0.38380   0.01267  Uiso   1.00
H55    H     0.86590   0.03540   0.40220   0.01267  Uiso   1.00
H56    H     0.76350   0.94200   0.39260   0.01267  Uiso   1.00
H57    H     0.95030   0.74940   0.60540   0.01267  Uiso   1.00
H58    H     0.84230   0.65240   0.61880   0.01267  Uiso   1.00
H59    H     0.63960   0.46360   0.63200   0.01267  Uiso   1.00
H60    H     0.06240   0.72780   0.37620   0.01267  Uiso   1.00
H61    H     0.73410   0.56860   0.62680   0.01267  Uiso   1.00
H62    H     0.95250   0.63280   0.38380   0.01267  Uiso   1.00
H63    H     0.73190   0.46460   0.40220   0.01267  Uiso   1.00
H64    H     0.84390   0.55800   0.39260   0.01267  Uiso   1.00
C1     C     0.98700   0.13200   0.00140   0.01267  Uiso   1.00
C2     C     0.11342   0.07140   0.00796   0.01267  Uiso   1.00
C3     C     0.76382   0.22420   0.05956   0.01267  Uiso   1.00
C4     C     0.87880   0.16780   0.06800   0.01267  Uiso   1.00
C5     C     0.25390   0.98360   0.08200   0.01267  Uiso   1.00
C6     C     0.84400   0.21240   0.92640   0.01267  Uiso   1.00
C7     C     0.13680   0.04440   0.07960   0.01267  Uiso   1.00
C8     C     0.96350   0.15580   0.93080   0.01267  Uiso   1.00
C9     C     0.33310   0.98220   0.94900   0.01267  Uiso   1.00
C10    C     0.21540   0.04000   0.94280   0.01267  Uiso   1.00
C11    C     0.01160   0.36800   0.00140   0.01267  Uiso   1.00
C12    C     0.87862   0.42860   0.00796   0.01267  Uiso   1.00
C13    C     0.17662   0.27580   0.05956   0.01267  Uiso   1.00
C14    C     0.05320   0.33220   0.06800   0.01267  Uiso   1.00
C15    C     0.66410   0.51640   0.08200   0.01267  Uiso   1.00
C16    C     0.22960   0.28760   0.92640   0.01267  Uiso   1.00
C17    C     0.78360   0.45560   0.07960   0.01267  Uiso   1.00
C18    C     0.10570   0.34420   0.93080   0.01267  Uiso   1.00
C19    C     0.71790   0.51780   0.94900   0.01267  Uiso   1.00
C20    C     0.84180   0.46000   0.94280   0.01267  Uiso   1.00
C21    C     0.38100   0.13200   0.49860   0.01267  Uiso   1.00
C22    C     0.31518   0.07140   0.49204   0.01267  Uiso   1.00
C23    C     0.51198   0.22420   0.44044   0.01267  Uiso   1.00
C24    C     0.45340   0.16780   0.43200   0.01267  Uiso   1.00
C25    C     0.26250   0.98360   0.41800   0.01267  Uiso   1.00
C26    C     0.44360   0.21240   0.57360   0.01267  Uiso   1.00
C27    C     0.31880   0.04440   0.42040   0.01267  Uiso   1.00
C28    C     0.38070   0.15580   0.56920   0.01267  Uiso   1.00
C29    C     0.18470   0.98220   0.55100   0.01267  Uiso   1.00
C30    C     0.24460   0.04000   0.55720   0.01267  Uiso   1.00
C31    C     0.12040   0.36800   0.49860   0.01267  Uiso   1.00
C32    C     0.19278   0.42860   0.49204   0.01267  Uiso   1.00
C33    C     0.04758   0.27580   0.44044   0.01267  Uiso   1.00
C34    C     0.11460   0.33220   0.43200   0.01267  Uiso   1.00
C35    C     0.31950   0.51640   0.41800   0.01267  Uiso   1.00
C36    C     0.98280   0.28760   0.57360   0.01267  Uiso   1.00
C37    C     0.26080   0.45560   0.42040   0.01267  Uiso   1.00
C38    C     0.05010   0.34420   0.56920   0.01267  Uiso   1.00
C39    C     0.26430   0.51780   0.55100   0.01267  Uiso   1.00
C40    C     0.19820   0.46000   0.55720   0.01267  Uiso   1.00
C41    C     0.01300   0.86800   0.99860   0.01267  Uiso   1.00
C42    C     0.88658   0.92860   0.99204   0.01267  Uiso   1.00
C43    C     0.23618   0.77580   0.94044   0.01267  Uiso   1.00
C44    C     0.12120   0.83220   0.93200   0.01267  Uiso   1.00
C45    C     0.74610   0.01640   0.91800   0.01267  Uiso   1.00
C46    C     0.15600   0.78760   0.07360   0.01267  Uiso   1.00
C47    C     0.86320   0.95560   0.92040   0.01267  Uiso   1.00
C48    C     0.03650   0.84420   0.06920   0.01267  Uiso   1.00
C49    C     0.66690   0.01780   0.05100   0.01267  Uiso   1.00
C50    C     0.78460   0.96000   0.05720   0.01267  Uiso   1.00
C51    C     0.98840   0.63200   0.99860   0.01267  Uiso   1.00
C52    C     0.12138   0.57140   0.99204   0.01267  Uiso   1.00
C53    C     0.82338   0.72420   0.94044   0.01267  Uiso   1.00
C54    C     0.94680   0.66780   0.93200   0.01267  Uiso   1.00
C55    C     0.33590   0.48360   0.91800   0.01267  Uiso   1.00
C56    C     0.77040   0.71240   0.07360   0.01267  Uiso   1.00
C57    C     0.21640   0.54440   0.92040   0.01267  Uiso   1.00
C58    C     0.89430   0.65580   0.06920   0.01267  Uiso   1.00
C59    C     0.28210   0.48220   0.05100   0.01267  Uiso   1.00
C60    C     0.15820   0.54000   0.05720   0.01267  Uiso   1.00
C61    C     0.61900   0.86800   0.50140   0.01267  Uiso   1.00
C62    C     0.68482   0.92860   0.50796   0.01267  Uiso   1.00
C63    C     0.48802   0.77580   0.55956   0.01267  Uiso   1.00
C64    C     0.54660   0.83220   0.56800   0.01267  Uiso   1.00
C65    C     0.73750   0.01640   0.58200   0.01267  Uiso   1.00
C66    C     0.55640   0.78760   0.42640   0.01267  Uiso   1.00
C67    C     0.68120   0.95560   0.57960   0.01267  Uiso   1.00
C68    C     0.61930   0.84420   0.43080   0.01267  Uiso   1.00
C69    C     0.81530   0.01780   0.44900   0.01267  Uiso   1.00
C70    C     0.75540   0.96000   0.44280   0.01267  Uiso   1.00
C71    C     0.87960   0.63200   0.50140   0.01267  Uiso   1.00
C72    C     0.80722   0.57140   0.50796   0.01267  Uiso   1.00
C73    C     0.95242   0.72420   0.55956   0.01267  Uiso   1.00
C74    C     0.88540   0.66780   0.56800   0.01267  Uiso   1.00
C75    C     0.68050   0.48360   0.58200   0.01267  Uiso   1.00
C76    C     0.01720   0.71240   0.42640   0.01267  Uiso   1.00
C77    C     0.73920   0.54440   0.57960   0.01267  Uiso   1.00
C78    C     0.94990   0.65580   0.43080   0.01267  Uiso   1.00
C79    C     0.73570   0.48220   0.44900   0.01267  Uiso   1.00
C80    C     0.80180   0.54000   0.44280   0.01267  Uiso   1.00
C81    C     0.60210   0.25000   0.79580   0.01267  Uiso   1.00
C82    C     0.64790   0.25000   0.70420   0.01267  Uiso   1.00
C83    C     0.39790   0.75000   0.20420   0.01267  Uiso   1.00
C84    C     0.35210   0.75000   0.29580   0.01267  Uiso   1.00
N1     N     0.74268   0.24634   0.98950   0.01267  Uiso   1.00
N2     N     0.35657   0.94924   0.01782   0.01267  Uiso   1.00
N3     N     0.26782   0.25366   0.98950   0.01267  Uiso   1.00
N4     N     0.62561   0.55076   0.01782   0.01267  Uiso   1.00
N5     N     0.51098   0.24634   0.51050   0.01267  Uiso   1.00
N6     N     0.19419   0.94924   0.48218   0.01267  Uiso   1.00
N7     N     0.97852   0.25366   0.51050   0.01267  Uiso   1.00
N8     N     0.32363   0.55076   0.48218   0.01267  Uiso   1.00
N9     N     0.25732   0.75366   0.01050   0.01267  Uiso   1.00
N10    N     0.64343   0.05076   0.98218   0.01267  Uiso   1.00
N11    N     0.73218   0.74634   0.01050   0.01267  Uiso   1.00
N12    N     0.37439   0.44924   0.98218   0.01267  Uiso   1.00
N13    N     0.48902   0.75366   0.48950   0.01267  Uiso   1.00
N14    N     0.80581   0.05076   0.51782   0.01267  Uiso   1.00
N15    N     0.02148   0.74634   0.48950   0.01267  Uiso   1.00
N16    N     0.67637   0.44924   0.51782   0.01267  Uiso   1.00
O1     O     0.63632   0.29660   0.82856   0.01267  Uiso   1.00
O2     O     0.53512   0.20340   0.82856   0.01267  Uiso   1.00
O3     O     0.56708   0.29660   0.67144   0.01267  Uiso   1.00
O4     O     0.76148   0.20340   0.67144   0.01267  Uiso   1.00
O5     O     0.36368   0.70340   0.17144   0.01267  Uiso   1.00
O6     O     0.46488   0.79660   0.17144   0.01267  Uiso   1.00
O7     O     0.43292   0.70340   0.32856   0.01267  Uiso   1.00
O8     O     0.23852   0.79660   0.32856   0.01267  Uiso   1.00
