data_YEGYIU_clean
_audit_creation_date              2014-07-02
_audit_creation_method            'Materials Studio'
_symmetry_space_group_name_H-M    'P1'
_symmetry_Int_Tables_number       1
_symmetry_cell_setting            triclinic
loop_
_symmetry_equiv_pos_as_xyz
  x,y,z
_cell_length_a                    7.0100
_cell_length_b                    9.1462
_cell_length_c                    15.4960
_cell_angle_alpha                 97.9600
_cell_angle_beta                  98.3900
_cell_angle_gamma                 92.0100
loop_
_atom_site_label
_atom_site_type_symbol
_atom_site_fract_x
_atom_site_fract_y
_atom_site_fract_z
_atom_site_U_iso_or_equiv
_atom_site_adp_type
_atom_site_occupancy
Ag1    Ag    0.45200   0.66069   0.60430   0.01267  Uiso   1.00
Ag2    Ag    0.16896   0.44751   0.29114   0.01267  Uiso   1.00
Ag3    Ag    0.54800   0.33931   0.39570   0.01267  Uiso   1.00
Ag4    Ag    0.83104   0.55249   0.70886   0.01267  Uiso   1.00
H1     H     0.23310   0.69850   0.17980   0.01267  Uiso   1.00
H2     H     0.27150   0.74190   0.03970   0.01267  Uiso   1.00
H3     H     0.22590   0.30160   0.96180   0.01267  Uiso   1.00
H4     H     0.18660   0.26950   0.10210   0.01267  Uiso   1.00
H5     H     0.29980   0.77450   0.91640   0.01267  Uiso   1.00
H6     H     0.37010   0.81250   0.77920   0.01267  Uiso   1.00
H7     H     0.33280   0.38480   0.69990   0.01267  Uiso   1.00
H8     H     0.27100   0.33680   0.83460   0.01267  Uiso   1.00
H9     H     0.00490   0.13070   0.27410   0.01267  Uiso   1.00
H10    H     0.94500   0.94300   0.35070   0.01267  Uiso   1.00
H11    H     0.10150   0.22630   0.57730   0.01267  Uiso   1.00
H12    H     0.15880   0.40890   0.49340   0.01267  Uiso   1.00
H13    H     0.76690   0.30150   0.82020   0.01267  Uiso   1.00
H14    H     0.72850   0.25810   0.96030   0.01267  Uiso   1.00
H15    H     0.77410   0.69840   0.03820   0.01267  Uiso   1.00
H16    H     0.81340   0.73050   0.89790   0.01267  Uiso   1.00
H17    H     0.70020   0.22550   0.08360   0.01267  Uiso   1.00
H18    H     0.62990   0.18750   0.22080   0.01267  Uiso   1.00
H19    H     0.66720   0.61520   0.30010   0.01267  Uiso   1.00
H20    H     0.72900   0.66320   0.16540   0.01267  Uiso   1.00
H21    H     0.99510   0.86930   0.72590   0.01267  Uiso   1.00
H22    H     0.05500   0.05700   0.64930   0.01267  Uiso   1.00
H23    H     0.89850   0.77370   0.42270   0.01267  Uiso   1.00
H24    H     0.84120   0.59110   0.50660   0.01267  Uiso   1.00
C1     C     0.35320   0.71510   0.40940   0.01267  Uiso   1.00
C2     C     0.43690   0.86540   0.45560   0.01267  Uiso   1.00
C3     C     0.52190   0.01700   0.58870   0.01267  Uiso   1.00
C4     C     0.52550   0.03350   0.68800   0.01267  Uiso   1.00
C5     C     0.23070   0.61640   0.13480   0.01267  Uiso   1.00
C6     C     0.25460   0.64320   0.05100   0.01267  Uiso   1.00
C7     C     0.25400   0.52590   0.98340   0.01267  Uiso   1.00
C8     C     0.22760   0.38580   0.00540   0.01267  Uiso   1.00
C9     C     0.20410   0.36740   0.08940   0.01267  Uiso   1.00
C10    C     0.28210   0.55110   0.89320   0.01267  Uiso   1.00
C11    C     0.30920   0.69160   0.87320   0.01267  Uiso   1.00
C12    C     0.35040   0.71410   0.79050   0.01267  Uiso   1.00
C13    C     0.32980   0.46600   0.74500   0.01267  Uiso   1.00
C14    C     0.29140   0.43630   0.82530   0.01267  Uiso   1.00
C15    C     0.02500   0.15060   0.33660   0.01267  Uiso   1.00
C16    C     0.98950   0.03770   0.38200   0.01267  Uiso   1.00
C17    C     0.01780   0.06010   0.47400   0.01267  Uiso   1.00
C18    C     0.08130   0.20380   0.51480   0.01267  Uiso   1.00
C19    C     0.11460   0.31280   0.46430   0.01267  Uiso   1.00
C20    C     0.64680   0.28490   0.59060   0.01267  Uiso   1.00
C21    C     0.56310   0.13460   0.54440   0.01267  Uiso   1.00
C22    C     0.47810   0.98300   0.41130   0.01267  Uiso   1.00
C23    C     0.47450   0.96650   0.31200   0.01267  Uiso   1.00
C24    C     0.76930   0.38360   0.86520   0.01267  Uiso   1.00
C25    C     0.74540   0.35680   0.94900   0.01267  Uiso   1.00
C26    C     0.74600   0.47410   0.01660   0.01267  Uiso   1.00
C27    C     0.77240   0.61420   0.99460   0.01267  Uiso   1.00
C28    C     0.79590   0.63260   0.91060   0.01267  Uiso   1.00
C29    C     0.71790   0.44890   0.10680   0.01267  Uiso   1.00
C30    C     0.69080   0.30840   0.12680   0.01267  Uiso   1.00
C31    C     0.64960   0.28590   0.20950   0.01267  Uiso   1.00
C32    C     0.67020   0.53400   0.25500   0.01267  Uiso   1.00
C33    C     0.70860   0.56370   0.17470   0.01267  Uiso   1.00
C34    C     0.97500   0.84940   0.66340   0.01267  Uiso   1.00
C35    C     0.01050   0.96230   0.61800   0.01267  Uiso   1.00
C36    C     0.98220   0.93990   0.52600   0.01267  Uiso   1.00
C37    C     0.91870   0.79620   0.48520   0.01267  Uiso   1.00
C38    C     0.88540   0.68720   0.53570   0.01267  Uiso   1.00
N1     N     0.46130   0.88430   0.54443   0.01267  Uiso   1.00
N2     N     0.20430   0.48070   0.15508   0.01267  Uiso   1.00
N3     N     0.36310   0.60150   0.72624   0.01267  Uiso   1.00
N4     N     0.08650   0.28780   0.37490   0.01267  Uiso   1.00
N5     N     0.53870   0.11570   0.45557   0.01267  Uiso   1.00
N6     N     0.79570   0.51930   0.84492   0.01267  Uiso   1.00
N7     N     0.63690   0.39850   0.27376   0.01267  Uiso   1.00
N8     N     0.91350   0.71220   0.62510   0.01267  Uiso   1.00
O1     O     0.24150   0.71230   0.33935   0.01267  Uiso   1.00
O2     O     0.40120   0.60440   0.44689   0.01267  Uiso   1.00
O3     O     0.62150   0.94430   0.72772   0.01267  Uiso   1.00
O4     O     0.41930   0.12960   0.71812   0.01267  Uiso   1.00
O5     O     0.75850   0.28770   0.66065   0.01267  Uiso   1.00
O6     O     0.59880   0.39560   0.55311   0.01267  Uiso   1.00
O7     O     0.37850   0.05570   0.27228   0.01267  Uiso   1.00
O8     O     0.58070   0.87040   0.28188   0.01267  Uiso   1.00
