data_YEYBOV_clean
_audit_creation_date              2014-07-02
_audit_creation_method            'Materials Studio'
_symmetry_space_group_name_H-M    'P1'
_symmetry_Int_Tables_number       1
_symmetry_cell_setting            triclinic
loop_
_symmetry_equiv_pos_as_xyz
  x,y,z
_cell_length_a                    8.3079
_cell_length_b                    14.6388
_cell_length_c                    14.6388
_cell_angle_alpha                 92.8564
_cell_angle_beta                  102.0370
_cell_angle_gamma                 102.0370
loop_
_atom_site_label
_atom_site_type_symbol
_atom_site_fract_x
_atom_site_fract_y
_atom_site_fract_z
_atom_site_U_iso_or_equiv
_atom_site_adp_type
_atom_site_occupancy
Ba1    Ba    0.25000   0.04349   0.95651   0.01267  Uiso   1.00
Ba2    Ba    0.75000   0.95651   0.04349   0.01267  Uiso   1.00
P1     P     0.99248   0.12000   0.73344   0.01267  Uiso   1.00
P2     P     0.39844   0.92730   0.79422   0.01267  Uiso   1.00
P3     P     0.50752   0.26656   0.88000   0.01267  Uiso   1.00
P4     P     0.10156   0.20578   0.07270   0.01267  Uiso   1.00
P5     P     0.00752   0.88000   0.26656   0.01267  Uiso   1.00
P6     P     0.60156   0.07270   0.20578   0.01267  Uiso   1.00
P7     P     0.49248   0.73344   0.12000   0.01267  Uiso   1.00
P8     P     0.89844   0.79422   0.92730   0.01267  Uiso   1.00
H1     H     0.91010   0.12960   0.54040   0.01267  Uiso   1.00
H2     H     0.20610   0.88560   0.61440   0.01267  Uiso   1.00
H3     H     0.72350   0.03370   0.80610   0.01267  Uiso   1.00
H4     H     0.41500   0.76170   0.87230   0.01267  Uiso   1.00
H5     H     0.22320   0.75680   0.83300   0.01267  Uiso   1.00
H6     H     0.87320   0.28490   0.74750   0.01267  Uiso   1.00
H7     H     0.04730   0.29520   0.81780   0.01267  Uiso   1.00
H8     H     0.38610   0.65630   0.73390   0.01267  Uiso   1.00
H9     H     0.32500   0.61590   0.82110   0.01267  Uiso   1.00
H10    H     0.19370   0.63560   0.73500   0.01267  Uiso   1.00
H11    H     0.95970   0.41510   0.70510   0.01267  Uiso   1.00
H12    H     0.13690   0.42320   0.77220   0.01267  Uiso   1.00
H13    H     0.10080   0.37760   0.66880   0.01267  Uiso   1.00
H14    H     0.58990   0.45960   0.87040   0.01267  Uiso   1.00
H15    H     0.29390   0.38560   0.11440   0.01267  Uiso   1.00
H16    H     0.77650   0.19390   0.96630   0.01267  Uiso   1.00
H17    H     0.08500   0.12770   0.23830   0.01267  Uiso   1.00
H18    H     0.27680   0.16700   0.24320   0.01267  Uiso   1.00
H19    H     0.62680   0.25250   0.71510   0.01267  Uiso   1.00
H20    H     0.45270   0.18220   0.70480   0.01267  Uiso   1.00
H21    H     0.11390   0.26610   0.34370   0.01267  Uiso   1.00
H22    H     0.17500   0.17890   0.38410   0.01267  Uiso   1.00
H23    H     0.30630   0.26500   0.36440   0.01267  Uiso   1.00
H24    H     0.54030   0.29490   0.58490   0.01267  Uiso   1.00
H25    H     0.36310   0.22780   0.57680   0.01267  Uiso   1.00
H26    H     0.39920   0.33120   0.62240   0.01267  Uiso   1.00
H27    H     0.08990   0.87040   0.45960   0.01267  Uiso   1.00
H28    H     0.79390   0.11440   0.38560   0.01267  Uiso   1.00
H29    H     0.27650   0.96630   0.19390   0.01267  Uiso   1.00
H30    H     0.58500   0.23830   0.12770   0.01267  Uiso   1.00
H31    H     0.77680   0.24320   0.16700   0.01267  Uiso   1.00
H32    H     0.12680   0.71510   0.25250   0.01267  Uiso   1.00
H33    H     0.95270   0.70480   0.18220   0.01267  Uiso   1.00
H34    H     0.61390   0.34370   0.26610   0.01267  Uiso   1.00
H35    H     0.67500   0.38410   0.17890   0.01267  Uiso   1.00
H36    H     0.80630   0.36440   0.26500   0.01267  Uiso   1.00
H37    H     0.04030   0.58490   0.29490   0.01267  Uiso   1.00
H38    H     0.86310   0.57680   0.22780   0.01267  Uiso   1.00
H39    H     0.89920   0.62240   0.33120   0.01267  Uiso   1.00
H40    H     0.41010   0.54040   0.12960   0.01267  Uiso   1.00
H41    H     0.70610   0.61440   0.88560   0.01267  Uiso   1.00
H42    H     0.22350   0.80610   0.03370   0.01267  Uiso   1.00
H43    H     0.91500   0.87230   0.76170   0.01267  Uiso   1.00
H44    H     0.72320   0.83300   0.75680   0.01267  Uiso   1.00
H45    H     0.37320   0.74750   0.28490   0.01267  Uiso   1.00
H46    H     0.54730   0.81780   0.29520   0.01267  Uiso   1.00
H47    H     0.88610   0.73390   0.65630   0.01267  Uiso   1.00
H48    H     0.82500   0.82110   0.61590   0.01267  Uiso   1.00
H49    H     0.69370   0.73500   0.63560   0.01267  Uiso   1.00
H50    H     0.45970   0.70510   0.41510   0.01267  Uiso   1.00
H51    H     0.63690   0.77220   0.42320   0.01267  Uiso   1.00
H52    H     0.60080   0.66880   0.37760   0.01267  Uiso   1.00
C1     C     0.51350   0.97540   0.70920   0.01267  Uiso   1.00
C2     C     0.44040   0.96380   0.61240   0.01267  Uiso   1.00
C3     C     0.53650   0.00500   0.54940   0.01267  Uiso   1.00
C4     C     0.70610   0.05580   0.58420   0.01267  Uiso   1.00
C5     C     0.79910   0.09620   0.51860   0.01267  Uiso   1.00
C6     C     0.27060   0.91310   0.57410   0.01267  Uiso   1.00
C7     C     0.77620   0.06510   0.68190   0.01267  Uiso   1.00
C8     C     0.67750   0.02580   0.74200   0.01267  Uiso   1.00
C9     C     0.32700   0.75190   0.81510   0.01267  Uiso   1.00
C10    C     0.99400   0.29480   0.75220   0.01267  Uiso   1.00
C11    C     0.30600   0.65680   0.77260   0.01267  Uiso   1.00
C12    C     0.05300   0.38510   0.72210   0.01267  Uiso   1.00
C13    C     0.98650   0.29080   0.02460   0.01267  Uiso   1.00
C14    C     0.05960   0.38760   0.03620   0.01267  Uiso   1.00
C15    C     0.96350   0.45060   0.99500   0.01267  Uiso   1.00
C16    C     0.79390   0.41580   0.94420   0.01267  Uiso   1.00
C17    C     0.70090   0.48140   0.90380   0.01267  Uiso   1.00
C18    C     0.22940   0.42590   0.08690   0.01267  Uiso   1.00
C19    C     0.72380   0.31810   0.93490   0.01267  Uiso   1.00
C20    C     0.82250   0.25800   0.97420   0.01267  Uiso   1.00
C21    C     0.17300   0.18490   0.24810   0.01267  Uiso   1.00
C22    C     0.50600   0.24780   0.70520   0.01267  Uiso   1.00
C23    C     0.19400   0.22740   0.34320   0.01267  Uiso   1.00
C24    C     0.44700   0.27790   0.61490   0.01267  Uiso   1.00
C25    C     0.48650   0.02460   0.29080   0.01267  Uiso   1.00
C26    C     0.55960   0.03620   0.38760   0.01267  Uiso   1.00
C27    C     0.46350   0.99500   0.45060   0.01267  Uiso   1.00
C28    C     0.29390   0.94420   0.41580   0.01267  Uiso   1.00
C29    C     0.20090   0.90380   0.48140   0.01267  Uiso   1.00
C30    C     0.72940   0.08690   0.42590   0.01267  Uiso   1.00
C31    C     0.22380   0.93490   0.31810   0.01267  Uiso   1.00
C32    C     0.32250   0.97420   0.25800   0.01267  Uiso   1.00
C33    C     0.67300   0.24810   0.18490   0.01267  Uiso   1.00
C34    C     0.00600   0.70520   0.24780   0.01267  Uiso   1.00
C35    C     0.69400   0.34320   0.22740   0.01267  Uiso   1.00
C36    C     0.94700   0.61490   0.27790   0.01267  Uiso   1.00
C37    C     0.01350   0.70920   0.97540   0.01267  Uiso   1.00
C38    C     0.94040   0.61240   0.96380   0.01267  Uiso   1.00
C39    C     0.03650   0.54940   0.00500   0.01267  Uiso   1.00
C40    C     0.20610   0.58420   0.05580   0.01267  Uiso   1.00
C41    C     0.29910   0.51860   0.09620   0.01267  Uiso   1.00
C42    C     0.77060   0.57410   0.91310   0.01267  Uiso   1.00
C43    C     0.27620   0.68190   0.06510   0.01267  Uiso   1.00
C44    C     0.17750   0.74200   0.02580   0.01267  Uiso   1.00
C45    C     0.82700   0.81510   0.75190   0.01267  Uiso   1.00
C46    C     0.49400   0.75220   0.29480   0.01267  Uiso   1.00
C47    C     0.80600   0.77260   0.65680   0.01267  Uiso   1.00
C48    C     0.55300   0.72210   0.38510   0.01267  Uiso   1.00
O1     O     0.03000   0.11587   0.83473   0.01267  Uiso   1.00
O2     O     0.50240   0.95163   0.89181   0.01267  Uiso   1.00
O3     O     0.36570   0.81930   0.76390   0.01267  Uiso   1.00
O4     O     0.23250   0.95691   0.78009   0.01267  Uiso   1.00
O5     O     0.02480   0.21930   0.70150   0.01267  Uiso   1.00
O6     O     0.10540   0.07340   0.68160   0.01267  Uiso   1.00
O7     O     0.47000   0.16527   0.88413   0.01267  Uiso   1.00
O8     O     0.99760   0.10819   0.04837   0.01267  Uiso   1.00
O9     O     0.13430   0.23610   0.18070   0.01267  Uiso   1.00
O10    O     0.26750   0.21991   0.04309   0.01267  Uiso   1.00
O11    O     0.47520   0.29850   0.78070   0.01267  Uiso   1.00
O12    O     0.39460   0.31840   0.92660   0.01267  Uiso   1.00
O13    O     0.97000   0.88413   0.16527   0.01267  Uiso   1.00
O14    O     0.49760   0.04837   0.10819   0.01267  Uiso   1.00
O15    O     0.63430   0.18070   0.23610   0.01267  Uiso   1.00
O16    O     0.76750   0.04309   0.21991   0.01267  Uiso   1.00
O17    O     0.97520   0.78070   0.29850   0.01267  Uiso   1.00
O18    O     0.89460   0.92660   0.31840   0.01267  Uiso   1.00
O19    O     0.53000   0.83473   0.11587   0.01267  Uiso   1.00
O20    O     0.00240   0.89181   0.95163   0.01267  Uiso   1.00
O21    O     0.86570   0.76390   0.81930   0.01267  Uiso   1.00
O22    O     0.73250   0.78009   0.95691   0.01267  Uiso   1.00
O23    O     0.52480   0.70150   0.21930   0.01267  Uiso   1.00
O24    O     0.60540   0.68160   0.07340   0.01267  Uiso   1.00
