data_YIZWIN_clean
_audit_creation_date              2014-07-02
_audit_creation_method            'Materials Studio'
_symmetry_space_group_name_H-M    'P1'
_symmetry_Int_Tables_number       1
_symmetry_cell_setting            triclinic
loop_
_symmetry_equiv_pos_as_xyz
  x,y,z
_cell_length_a                    7.6280
_cell_length_b                    13.9500
_cell_length_c                    26.7130
_cell_angle_alpha                 90.0000
_cell_angle_beta                  90.0000
_cell_angle_gamma                 90.0000
loop_
_atom_site_label
_atom_site_type_symbol
_atom_site_fract_x
_atom_site_fract_y
_atom_site_fract_z
_atom_site_U_iso_or_equiv
_atom_site_adp_type
_atom_site_occupancy
Cd1    Cd    0.37653   0.30795   0.50000   0.01267  Uiso   1.00
Cd2    Cd    0.37537   0.26070   0.23083   0.01267  Uiso   1.00
Cd3    Cd    0.62347   0.69205   0.00000   0.01267  Uiso   1.00
Cd4    Cd    0.62463   0.73930   0.73083   0.01267  Uiso   1.00
Cd5    Cd    0.12347   0.80795   0.50000   0.01267  Uiso   1.00
Cd6    Cd    0.12463   0.76070   0.23083   0.01267  Uiso   1.00
Cd7    Cd    0.87653   0.19205   0.00000   0.01267  Uiso   1.00
Cd8    Cd    0.87537   0.23930   0.73083   0.01267  Uiso   1.00
Ni1    Ni    0.88485   0.25136   0.36621   0.01267  Uiso   1.00
Ni2    Ni    0.00520   0.52436   0.61622   0.01267  Uiso   1.00
Ni3    Ni    0.11515   0.74864   0.86621   0.01267  Uiso   1.00
Ni4    Ni    0.99480   0.47564   0.11622   0.01267  Uiso   1.00
Ni5    Ni    0.61515   0.75136   0.36621   0.01267  Uiso   1.00
Ni6    Ni    0.49480   0.02436   0.61622   0.01267  Uiso   1.00
Ni7    Ni    0.38485   0.24864   0.86621   0.01267  Uiso   1.00
Ni8    Ni    0.50520   0.97564   0.11622   0.01267  Uiso   1.00
C1     C     0.05700   0.27040   0.41440   0.01267  Uiso   1.00
C2     C     0.71120   0.26630   0.41400   0.01267  Uiso   1.00
C3     C     0.10210   0.41900   0.58360   0.01267  Uiso   1.00
C4     C     0.07970   0.60510   0.56510   0.01267  Uiso   1.00
C5     C     0.06000   0.23940   0.31820   0.01267  Uiso   1.00
C6     C     0.71270   0.23890   0.31740   0.01267  Uiso   1.00
C7     C     0.90500   0.63000   0.64840   0.01267  Uiso   1.00
C8     C     0.93100   0.44430   0.66730   0.01267  Uiso   1.00
C9     C     0.63900   0.44850   0.55400   0.01267  Uiso   1.00
C10    C     0.56700   0.50370   0.51940   0.01267  Uiso   1.00
C11    C     0.60900   0.61010   0.52000   0.01267  Uiso   1.00
C12    C     0.60300   0.41020   0.17160   0.01267  Uiso   1.00
C13    C     0.56600   0.45850   0.21490   0.01267  Uiso   1.00
C14    C     0.59100   0.56710   0.21330   0.01267  Uiso   1.00
C15    C     0.94300   0.72960   0.91440   0.01267  Uiso   1.00
C16    C     0.28880   0.73370   0.91400   0.01267  Uiso   1.00
C17    C     0.89790   0.58100   0.08360   0.01267  Uiso   1.00
C18    C     0.92030   0.39490   0.06510   0.01267  Uiso   1.00
C19    C     0.94000   0.76060   0.81820   0.01267  Uiso   1.00
C20    C     0.28730   0.76110   0.81740   0.01267  Uiso   1.00
C21    C     0.09500   0.37000   0.14840   0.01267  Uiso   1.00
C22    C     0.06900   0.55570   0.16730   0.01267  Uiso   1.00
C23    C     0.36100   0.55150   0.05400   0.01267  Uiso   1.00
C24    C     0.43300   0.49630   0.01940   0.01267  Uiso   1.00
C25    C     0.39100   0.38990   0.02000   0.01267  Uiso   1.00
C26    C     0.39700   0.58980   0.67160   0.01267  Uiso   1.00
C27    C     0.43400   0.54150   0.71490   0.01267  Uiso   1.00
C28    C     0.40900   0.43290   0.71330   0.01267  Uiso   1.00
C29    C     0.44300   0.77040   0.41440   0.01267  Uiso   1.00
C30    C     0.78880   0.76630   0.41400   0.01267  Uiso   1.00
C31    C     0.39790   0.91900   0.58360   0.01267  Uiso   1.00
C32    C     0.42030   0.10510   0.56510   0.01267  Uiso   1.00
C33    C     0.44000   0.73940   0.31820   0.01267  Uiso   1.00
C34    C     0.78730   0.73890   0.31740   0.01267  Uiso   1.00
C35    C     0.59500   0.13000   0.64840   0.01267  Uiso   1.00
C36    C     0.56900   0.94430   0.66730   0.01267  Uiso   1.00
C37    C     0.86100   0.94850   0.55400   0.01267  Uiso   1.00
C38    C     0.93300   0.00370   0.51940   0.01267  Uiso   1.00
C39    C     0.89100   0.11010   0.52000   0.01267  Uiso   1.00
C40    C     0.89700   0.91020   0.17160   0.01267  Uiso   1.00
C41    C     0.93400   0.95850   0.21490   0.01267  Uiso   1.00
C42    C     0.90900   0.06710   0.21330   0.01267  Uiso   1.00
C43    C     0.55700   0.22960   0.91440   0.01267  Uiso   1.00
C44    C     0.21120   0.23370   0.91400   0.01267  Uiso   1.00
C45    C     0.60210   0.08100   0.08360   0.01267  Uiso   1.00
C46    C     0.57970   0.89490   0.06510   0.01267  Uiso   1.00
C47    C     0.56000   0.26060   0.81820   0.01267  Uiso   1.00
C48    C     0.21270   0.26110   0.81740   0.01267  Uiso   1.00
C49    C     0.40500   0.87000   0.14840   0.01267  Uiso   1.00
C50    C     0.43100   0.05570   0.16730   0.01267  Uiso   1.00
C51    C     0.13900   0.05150   0.05400   0.01267  Uiso   1.00
C52    C     0.06700   0.99630   0.01940   0.01267  Uiso   1.00
C53    C     0.10900   0.88990   0.02000   0.01267  Uiso   1.00
C54    C     0.10300   0.08980   0.67160   0.01267  Uiso   1.00
C55    C     0.06600   0.04150   0.71490   0.01267  Uiso   1.00
C56    C     0.09100   0.93290   0.71330   0.01267  Uiso   1.00
N1     N     0.16410   0.28230   0.44320   0.01267  Uiso   1.00
N2     N     0.60050   0.27570   0.44270   0.01267  Uiso   1.00
N3     N     0.16800   0.35710   0.56240   0.01267  Uiso   1.00
N4     N     0.12420   0.65480   0.53410   0.01267  Uiso   1.00
N5     N     0.60600   0.34720   0.55740   0.01267  Uiso   1.00
N6     N     0.42870   0.47180   0.48700   0.01267  Uiso   1.00
N7     N     0.16490   0.23830   0.28820   0.01267  Uiso   1.00
N8     N     0.60430   0.23480   0.28800   0.01267  Uiso   1.00
N9     N     0.84100   0.69300   0.66760   0.01267  Uiso   1.00
N10    N     0.88370   0.39280   0.69740   0.01267  Uiso   1.00
N11    N     0.59700   0.30270   0.17270   0.01267  Uiso   1.00
N12    N     0.41310   0.42760   0.24410   0.01267  Uiso   1.00
N13    N     0.83590   0.71770   0.94320   0.01267  Uiso   1.00
N14    N     0.39950   0.72430   0.94270   0.01267  Uiso   1.00
N15    N     0.83200   0.64290   0.06240   0.01267  Uiso   1.00
N16    N     0.87580   0.34520   0.03410   0.01267  Uiso   1.00
N17    N     0.39400   0.65280   0.05740   0.01267  Uiso   1.00
N18    N     0.57130   0.52820   0.98700   0.01267  Uiso   1.00
N19    N     0.83510   0.76170   0.78820   0.01267  Uiso   1.00
N20    N     0.39570   0.76520   0.78800   0.01267  Uiso   1.00
N21    N     0.15900   0.30700   0.16760   0.01267  Uiso   1.00
N22    N     0.11630   0.60720   0.19740   0.01267  Uiso   1.00
N23    N     0.40300   0.69730   0.67270   0.01267  Uiso   1.00
N24    N     0.58690   0.57240   0.74410   0.01267  Uiso   1.00
N25    N     0.33590   0.78230   0.44320   0.01267  Uiso   1.00
N26    N     0.89950   0.77570   0.44270   0.01267  Uiso   1.00
N27    N     0.33200   0.85710   0.56240   0.01267  Uiso   1.00
N28    N     0.37580   0.15480   0.53410   0.01267  Uiso   1.00
N29    N     0.89400   0.84720   0.55740   0.01267  Uiso   1.00
N30    N     0.07130   0.97180   0.48700   0.01267  Uiso   1.00
N31    N     0.33510   0.73830   0.28820   0.01267  Uiso   1.00
N32    N     0.89570   0.73480   0.28800   0.01267  Uiso   1.00
N33    N     0.65900   0.19300   0.66760   0.01267  Uiso   1.00
N34    N     0.61630   0.89280   0.69740   0.01267  Uiso   1.00
N35    N     0.90300   0.80270   0.17270   0.01267  Uiso   1.00
N36    N     0.08690   0.92760   0.24410   0.01267  Uiso   1.00
N37    N     0.66410   0.21770   0.94320   0.01267  Uiso   1.00
N38    N     0.10050   0.22430   0.94270   0.01267  Uiso   1.00
N39    N     0.66800   0.14290   0.06240   0.01267  Uiso   1.00
N40    N     0.62420   0.84520   0.03410   0.01267  Uiso   1.00
N41    N     0.10600   0.15280   0.05740   0.01267  Uiso   1.00
N42    N     0.92870   0.02820   0.98700   0.01267  Uiso   1.00
N43    N     0.66490   0.26170   0.78820   0.01267  Uiso   1.00
N44    N     0.10430   0.26520   0.78800   0.01267  Uiso   1.00
N45    N     0.34100   0.80700   0.16760   0.01267  Uiso   1.00
N46    N     0.38370   0.10720   0.19740   0.01267  Uiso   1.00
N47    N     0.09700   0.19730   0.67270   0.01267  Uiso   1.00
N48    N     0.91310   0.07240   0.74410   0.01267  Uiso   1.00
