data_YUKBIP01_clean
_audit_creation_date              2014-07-02
_audit_creation_method            'Materials Studio'
_symmetry_space_group_name_H-M    'P1'
_symmetry_Int_Tables_number       1
_symmetry_cell_setting            triclinic
loop_
_symmetry_equiv_pos_as_xyz
  x,y,z
_cell_length_a                    8.5311
_cell_length_b                    13.9949
_cell_length_c                    13.9949
_cell_angle_alpha                 120.0000
_cell_angle_beta                  90.0000
_cell_angle_gamma                 90.0000
loop_
_atom_site_label
_atom_site_type_symbol
_atom_site_fract_x
_atom_site_fract_y
_atom_site_fract_z
_atom_site_U_iso_or_equiv
_atom_site_adp_type
_atom_site_occupancy
Al1    Al    0.44120   0.49460   0.09730   0.01267  Uiso   1.00
Al2    Al    0.44120   0.60270   0.50540   0.01267  Uiso   1.00
Al3    Al    0.44120   0.90270   0.39730   0.01267  Uiso   1.00
Al4    Al    0.94120   0.39730   0.90270   0.01267  Uiso   1.00
Al5    Al    0.94120   0.09730   0.49460   0.01267  Uiso   1.00
Al6    Al    0.94120   0.50540   0.60270   0.01267  Uiso   1.00
Al7    Al    0.51020   0.33333   0.66666   0.01267  Uiso   1.00
Al8    Al    0.01020   0.66667   0.33334   0.01267  Uiso   1.00
P1     P     0.30030   0.34799   0.86571   0.01267  Uiso   1.00
P2     P     0.76860   0.18972   0.71929   0.01267  Uiso   1.00
P3     P     0.30030   0.51772   0.65201   0.01267  Uiso   1.00
P4     P     0.76860   0.52957   0.81028   0.01267  Uiso   1.00
P5     P     0.30030   0.13429   0.48228   0.01267  Uiso   1.00
P6     P     0.76860   0.28071   0.47043   0.01267  Uiso   1.00
P7     P     0.80030   0.48228   0.13429   0.01267  Uiso   1.00
P8     P     0.26860   0.47043   0.28071   0.01267  Uiso   1.00
P9     P     0.80030   0.86571   0.34799   0.01267  Uiso   1.00
P10    P     0.26860   0.71929   0.18972   0.01267  Uiso   1.00
P11    P     0.80030   0.65201   0.51772   0.01267  Uiso   1.00
P12    P     0.26860   0.81028   0.52957   0.01267  Uiso   1.00
H1     H     0.21680   0.18900   0.85730   0.01267  Uiso   1.00
H2     H     0.36870   0.16640   0.78610   0.01267  Uiso   1.00
H3     H     0.20640   0.17790   0.74030   0.01267  Uiso   1.00
H4     H     0.78780   0.06590   0.77970   0.01267  Uiso   1.00
H5     H     0.63380   0.04480   0.71080   0.01267  Uiso   1.00
H6     H     0.64150   0.14220   0.83300   0.01267  Uiso   1.00
H7     H     0.21680   0.66830   0.81100   0.01267  Uiso   1.00
H8     H     0.36870   0.61970   0.83360   0.01267  Uiso   1.00
H9     H     0.20640   0.56240   0.82210   0.01267  Uiso   1.00
H10    H     0.78780   0.71380   0.93410   0.01267  Uiso   1.00
H11    H     0.63380   0.66600   0.95520   0.01267  Uiso   1.00
H12    H     0.64150   0.69080   0.85780   0.01267  Uiso   1.00
H13    H     0.21680   0.14270   0.33170   0.01267  Uiso   1.00
H14    H     0.36870   0.21390   0.38030   0.01267  Uiso   1.00
H15    H     0.20640   0.25970   0.43760   0.01267  Uiso   1.00
H16    H     0.78780   0.22030   0.28620   0.01267  Uiso   1.00
H17    H     0.63380   0.28920   0.33400   0.01267  Uiso   1.00
H18    H     0.64150   0.16700   0.30920   0.01267  Uiso   1.00
H19    H     0.71680   0.33170   0.14270   0.01267  Uiso   1.00
H20    H     0.86870   0.38030   0.21390   0.01267  Uiso   1.00
H21    H     0.70640   0.43760   0.25970   0.01267  Uiso   1.00
H22    H     0.28780   0.28620   0.22030   0.01267  Uiso   1.00
H23    H     0.13380   0.33400   0.28920   0.01267  Uiso   1.00
H24    H     0.14150   0.30920   0.16700   0.01267  Uiso   1.00
H25    H     0.71680   0.85730   0.18900   0.01267  Uiso   1.00
H26    H     0.86870   0.78610   0.16640   0.01267  Uiso   1.00
H27    H     0.70640   0.74030   0.17790   0.01267  Uiso   1.00
H28    H     0.28780   0.77970   0.06590   0.01267  Uiso   1.00
H29    H     0.13380   0.71080   0.04480   0.01267  Uiso   1.00
H30    H     0.14150   0.83300   0.14220   0.01267  Uiso   1.00
H31    H     0.71680   0.81100   0.66830   0.01267  Uiso   1.00
H32    H     0.86870   0.83360   0.61970   0.01267  Uiso   1.00
H33    H     0.70640   0.82210   0.56240   0.01267  Uiso   1.00
H34    H     0.28780   0.93410   0.71380   0.01267  Uiso   1.00
H35    H     0.13380   0.95520   0.66600   0.01267  Uiso   1.00
H36    H     0.14150   0.85780   0.69080   0.01267  Uiso   1.00
C1     C     0.26950   0.20370   0.80530   0.01267  Uiso   1.00
C2     C     0.70010   0.10040   0.76600   0.01267  Uiso   1.00
C3     C     0.26950   0.60160   0.79630   0.01267  Uiso   1.00
C4     C     0.70010   0.66560   0.89960   0.01267  Uiso   1.00
C5     C     0.26950   0.19470   0.39840   0.01267  Uiso   1.00
C6     C     0.70010   0.23400   0.33440   0.01267  Uiso   1.00
C7     C     0.76950   0.39840   0.19470   0.01267  Uiso   1.00
C8     C     0.20010   0.33440   0.23400   0.01267  Uiso   1.00
C9     C     0.76950   0.80530   0.20370   0.01267  Uiso   1.00
C10    C     0.20010   0.76600   0.10040   0.01267  Uiso   1.00
C11    C     0.76950   0.79630   0.60160   0.01267  Uiso   1.00
C12    C     0.20010   0.89960   0.66560   0.01267  Uiso   1.00
O1     O     0.38280   0.37540   0.79070   0.01267  Uiso   1.00
O2     O     0.39220   0.38510   0.97070   0.01267  Uiso   1.00
O3     O     0.13930   0.40590   0.89640   0.01267  Uiso   1.00
O4     O     0.63120   0.24610   0.70510   0.01267  Uiso   1.00
O5     O     0.85630   0.11220   0.61270   0.01267  Uiso   1.00
O6     O     0.88590   0.26750   0.80130   0.01267  Uiso   1.00
O7     O     0.38280   0.41530   0.62460   0.01267  Uiso   1.00
O8     O     0.39220   0.58560   0.61490   0.01267  Uiso   1.00
O9     O     0.13930   0.49050   0.59410   0.01267  Uiso   1.00
O10    O     0.63120   0.45900   0.75390   0.01267  Uiso   1.00
O11    O     0.85630   0.50050   0.88780   0.01267  Uiso   1.00
O12    O     0.88590   0.53380   0.73250   0.01267  Uiso   1.00
O13    O     0.38280   0.20930   0.58470   0.01267  Uiso   1.00
O14    O     0.39220   0.02930   0.41440   0.01267  Uiso   1.00
O15    O     0.13930   0.10360   0.50950   0.01267  Uiso   1.00
O16    O     0.63120   0.29490   0.54100   0.01267  Uiso   1.00
O17    O     0.85630   0.38730   0.49950   0.01267  Uiso   1.00
O18    O     0.88590   0.19870   0.46620   0.01267  Uiso   1.00
O19    O     0.88280   0.58470   0.20930   0.01267  Uiso   1.00
O20    O     0.89220   0.41440   0.02930   0.01267  Uiso   1.00
O21    O     0.63930   0.50950   0.10360   0.01267  Uiso   1.00
O22    O     0.13120   0.54100   0.29490   0.01267  Uiso   1.00
O23    O     0.35630   0.49950   0.38730   0.01267  Uiso   1.00
O24    O     0.38590   0.46620   0.19870   0.01267  Uiso   1.00
O25    O     0.88280   0.79070   0.37540   0.01267  Uiso   1.00
O26    O     0.89220   0.97070   0.38510   0.01267  Uiso   1.00
O27    O     0.63930   0.89640   0.40590   0.01267  Uiso   1.00
O28    O     0.13120   0.70510   0.24610   0.01267  Uiso   1.00
O29    O     0.35630   0.61270   0.11220   0.01267  Uiso   1.00
O30    O     0.38590   0.80130   0.26750   0.01267  Uiso   1.00
O31    O     0.88280   0.62460   0.41530   0.01267  Uiso   1.00
O32    O     0.89220   0.61490   0.58560   0.01267  Uiso   1.00
O33    O     0.63930   0.59410   0.49050   0.01267  Uiso   1.00
O34    O     0.13120   0.75390   0.45900   0.01267  Uiso   1.00
O35    O     0.35630   0.88780   0.50050   0.01267  Uiso   1.00
O36    O     0.38590   0.73250   0.53380   0.01267  Uiso   1.00
