data_ZESZEE_clean
_audit_creation_date              2014-07-02
_audit_creation_method            'Materials Studio'
_symmetry_space_group_name_H-M    'P1'
_symmetry_Int_Tables_number       1
_symmetry_cell_setting            triclinic
loop_
_symmetry_equiv_pos_as_xyz
  x,y,z
_cell_length_a                    13.0625
_cell_length_b                    13.0625
_cell_length_c                    27.8583
_cell_angle_alpha                 76.4410
_cell_angle_beta                  76.4410
_cell_angle_gamma                 89.9999
loop_
_atom_site_label
_atom_site_type_symbol
_atom_site_fract_x
_atom_site_fract_y
_atom_site_fract_z
_atom_site_U_iso_or_equiv
_atom_site_adp_type
_atom_site_occupancy
Al1    Al    0.50000   0.00000   0.00000   0.01267  Uiso   1.00
Al2    Al    0.00000   0.00000   0.00000   0.01267  Uiso   1.00
Al3    Al    1.00000   1.00000   0.50000   0.01267  Uiso   1.00
Al4    Al    0.00000   0.50000   0.50000   0.01267  Uiso   1.00
Al5    Al    0.75464   0.00464   0.99072   0.01267  Uiso   1.00
Al6    Al    0.00464   0.75464   0.49072   0.01267  Uiso   1.00
Al7    Al    0.24536   0.99536   0.00928   0.01267  Uiso   1.00
Al8    Al    0.99536   0.24536   0.50928   0.01267  Uiso   1.00
H1     H     0.62470   0.14100   0.98700   0.01267  Uiso   1.00
H2     H     0.73980   0.80520   0.12360   0.01267  Uiso   1.00
H3     H     0.72790   0.73500   0.20800   0.01267  Uiso   1.00
H4     H     0.41360   0.74000   0.23520   0.01267  Uiso   1.00
H5     H     0.42850   0.80930   0.14980   0.01267  Uiso   1.00
H6     H     0.45550   0.52350   0.35120   0.01267  Uiso   1.00
H7     H     0.29330   0.50660   0.40560   0.01267  Uiso   1.00
H8     H     0.28440   0.82250   0.37280   0.01267  Uiso   1.00
H9     H     0.43540   0.83090   0.30900   0.01267  Uiso   1.00
H10    H     0.88830   0.87200   0.98700   0.01267  Uiso   1.00
H11    H     0.63660   0.07120   0.12360   0.01267  Uiso   1.00
H12    H     0.56410   0.05700   0.20800   0.01267  Uiso   1.00
H13    H     0.85120   0.02480   0.23520   0.01267  Uiso   1.00
H14    H     0.92170   0.04090   0.14980   0.01267  Uiso   1.00
H15    H     0.69330   0.12530   0.35120   0.01267  Uiso   1.00
H16    H     0.80110   0.08780   0.40560   0.01267  Uiso   1.00
H17    H     0.84280   0.80470   0.37280   0.01267  Uiso   1.00
H18    H     0.75560   0.86010   0.30900   0.01267  Uiso   1.00
H19    H     0.14100   0.88830   0.48700   0.01267  Uiso   1.00
H20    H     0.80520   0.63660   0.62360   0.01267  Uiso   1.00
H21    H     0.73500   0.56410   0.70800   0.01267  Uiso   1.00
H22    H     0.74000   0.85120   0.73520   0.01267  Uiso   1.00
H23    H     0.80930   0.92170   0.64980   0.01267  Uiso   1.00
H24    H     0.52350   0.69330   0.85120   0.01267  Uiso   1.00
H25    H     0.50660   0.80110   0.90560   0.01267  Uiso   1.00
H26    H     0.82250   0.84280   0.87280   0.01267  Uiso   1.00
H27    H     0.83090   0.75560   0.80900   0.01267  Uiso   1.00
H28    H     0.87200   0.62470   0.48700   0.01267  Uiso   1.00
H29    H     0.07120   0.73980   0.62360   0.01267  Uiso   1.00
H30    H     0.05700   0.72790   0.70800   0.01267  Uiso   1.00
H31    H     0.02480   0.41360   0.73520   0.01267  Uiso   1.00
H32    H     0.04090   0.42850   0.64980   0.01267  Uiso   1.00
H33    H     0.12530   0.45550   0.85120   0.01267  Uiso   1.00
H34    H     0.08780   0.29330   0.90560   0.01267  Uiso   1.00
H35    H     0.80470   0.28440   0.87280   0.01267  Uiso   1.00
H36    H     0.86010   0.43540   0.80900   0.01267  Uiso   1.00
H37    H     0.37530   0.85900   0.01300   0.01267  Uiso   1.00
H38    H     0.26020   0.19480   0.87640   0.01267  Uiso   1.00
H39    H     0.27210   0.26500   0.79200   0.01267  Uiso   1.00
H40    H     0.58640   0.26000   0.76480   0.01267  Uiso   1.00
H41    H     0.57150   0.19070   0.85020   0.01267  Uiso   1.00
H42    H     0.54450   0.47650   0.64880   0.01267  Uiso   1.00
H43    H     0.70670   0.49340   0.59440   0.01267  Uiso   1.00
H44    H     0.71560   0.17750   0.62720   0.01267  Uiso   1.00
H45    H     0.56460   0.16910   0.69100   0.01267  Uiso   1.00
H46    H     0.11170   0.12800   0.01300   0.01267  Uiso   1.00
H47    H     0.36340   0.92880   0.87640   0.01267  Uiso   1.00
H48    H     0.43590   0.94300   0.79200   0.01267  Uiso   1.00
H49    H     0.14880   0.97520   0.76480   0.01267  Uiso   1.00
H50    H     0.07830   0.95910   0.85020   0.01267  Uiso   1.00
H51    H     0.30670   0.87470   0.64880   0.01267  Uiso   1.00
H52    H     0.19890   0.91220   0.59440   0.01267  Uiso   1.00
H53    H     0.15720   0.19530   0.62720   0.01267  Uiso   1.00
H54    H     0.24440   0.13990   0.69100   0.01267  Uiso   1.00
H55    H     0.85900   0.11170   0.51300   0.01267  Uiso   1.00
H56    H     0.19480   0.36340   0.37640   0.01267  Uiso   1.00
H57    H     0.26500   0.43590   0.29200   0.01267  Uiso   1.00
H58    H     0.26000   0.14880   0.26480   0.01267  Uiso   1.00
H59    H     0.19070   0.07830   0.35020   0.01267  Uiso   1.00
H60    H     0.47650   0.30670   0.14880   0.01267  Uiso   1.00
H61    H     0.49340   0.19890   0.09440   0.01267  Uiso   1.00
H62    H     0.17750   0.15720   0.12720   0.01267  Uiso   1.00
H63    H     0.16910   0.24440   0.19100   0.01267  Uiso   1.00
H64    H     0.12800   0.37530   0.51300   0.01267  Uiso   1.00
H65    H     0.92880   0.26020   0.37640   0.01267  Uiso   1.00
H66    H     0.94300   0.27210   0.29200   0.01267  Uiso   1.00
H67    H     0.97520   0.58640   0.26480   0.01267  Uiso   1.00
H68    H     0.95910   0.57150   0.35020   0.01267  Uiso   1.00
H69    H     0.87470   0.54450   0.14880   0.01267  Uiso   1.00
H70    H     0.91220   0.70670   0.09440   0.01267  Uiso   1.00
H71    H     0.19530   0.71560   0.12720   0.01267  Uiso   1.00
H72    H     0.13990   0.56460   0.19100   0.01267  Uiso   1.00
C1     C     0.59831   0.87284   0.07388   0.01267  Uiso   1.00
C2     C     0.58641   0.81423   0.12808   0.01267  Uiso   1.00
C3     C     0.67368   0.79180   0.14618   0.01267  Uiso   1.00
C4     C     0.66702   0.75017   0.19652   0.01267  Uiso   1.00
C5     C     0.56871   0.73054   0.23058   0.01267  Uiso   1.00
C6     C     0.47996   0.75295   0.21270   0.01267  Uiso   1.00
C7     C     0.48900   0.79442   0.16176   0.01267  Uiso   1.00
C8     C     0.56177   0.68697   0.28586   0.01267  Uiso   1.00
C9     C     0.45920   0.67982   0.32336   0.01267  Uiso   1.00
C10    C     0.41780   0.58320   0.35380   0.01267  Uiso   1.00
C11    C     0.32276   0.57356   0.38768   0.01267  Uiso   1.00
C12    C     0.26854   0.66191   0.39626   0.01267  Uiso   1.00
C13    C     0.31532   0.76092   0.36716   0.01267  Uiso   1.00
C14    C     0.40801   0.76571   0.32998   0.01267  Uiso   1.00
C15    C     0.16817   0.65291   0.43524   0.01267  Uiso   1.00
C16    C     0.82781   0.05328   0.07388   0.01267  Uiso   1.00
C17    C     0.78551   0.05769   0.12808   0.01267  Uiso   1.00
C18    C     0.68014   0.06202   0.14618   0.01267  Uiso   1.00
C19    C     0.63646   0.05331   0.19652   0.01267  Uiso   1.00
C20    C     0.70071   0.03888   0.23058   0.01267  Uiso   1.00
C21    C     0.80734   0.03435   0.21270   0.01267  Uiso   1.00
C22    C     0.84924   0.04382   0.16176   0.01267  Uiso   1.00
C23    C     0.65237   0.02717   0.28586   0.01267  Uiso   1.00
C24    C     0.71744   0.99682   0.32336   0.01267  Uiso   1.00
C25    C     0.72840   0.06300   0.35380   0.01267  Uiso   1.00
C26    C     0.78956   0.03876   0.38768   0.01267  Uiso   1.00
C27    C     0.83520   0.94183   0.39626   0.01267  Uiso   1.00
C28    C     0.81752   0.87192   0.36716   0.01267  Uiso   1.00
C29    C     0.76201   0.90431   0.32998   0.01267  Uiso   1.00
C30    C     0.89659   0.91185   0.43524   0.01267  Uiso   1.00
C31    C     0.87284   0.82781   0.57388   0.01267  Uiso   1.00
C32    C     0.81423   0.78551   0.62808   0.01267  Uiso   1.00
C33    C     0.79180   0.68014   0.64618   0.01267  Uiso   1.00
C34    C     0.75017   0.63646   0.69652   0.01267  Uiso   1.00
C35    C     0.73054   0.70071   0.73058   0.01267  Uiso   1.00
C36    C     0.75295   0.80734   0.71270   0.01267  Uiso   1.00
C37    C     0.79442   0.84924   0.66176   0.01267  Uiso   1.00
C38    C     0.68697   0.65237   0.78586   0.01267  Uiso   1.00
C39    C     0.67982   0.71744   0.82336   0.01267  Uiso   1.00
C40    C     0.58320   0.72840   0.85380   0.01267  Uiso   1.00
C41    C     0.57356   0.78956   0.88768   0.01267  Uiso   1.00
C42    C     0.66191   0.83520   0.89626   0.01267  Uiso   1.00
C43    C     0.76092   0.81752   0.86716   0.01267  Uiso   1.00
C44    C     0.76571   0.76201   0.82998   0.01267  Uiso   1.00
C45    C     0.65291   0.89659   0.93524   0.01267  Uiso   1.00
C46    C     0.05328   0.59831   0.57388   0.01267  Uiso   1.00
C47    C     0.05769   0.58641   0.62808   0.01267  Uiso   1.00
C48    C     0.06202   0.67368   0.64618   0.01267  Uiso   1.00
C49    C     0.05331   0.66702   0.69652   0.01267  Uiso   1.00
C50    C     0.03888   0.56871   0.73058   0.01267  Uiso   1.00
C51    C     0.03435   0.47996   0.71270   0.01267  Uiso   1.00
C52    C     0.04382   0.48900   0.66176   0.01267  Uiso   1.00
C53    C     0.02717   0.56177   0.78586   0.01267  Uiso   1.00
C54    C     0.99682   0.45920   0.82336   0.01267  Uiso   1.00
C55    C     0.06300   0.41780   0.85380   0.01267  Uiso   1.00
C56    C     0.03876   0.32276   0.88768   0.01267  Uiso   1.00
C57    C     0.94183   0.26854   0.89626   0.01267  Uiso   1.00
C58    C     0.87192   0.31532   0.86716   0.01267  Uiso   1.00
C59    C     0.90431   0.40801   0.82998   0.01267  Uiso   1.00
C60    C     0.91185   0.16817   0.93524   0.01267  Uiso   1.00
C61    C     0.40169   0.12716   0.92612   0.01267  Uiso   1.00
C62    C     0.41359   0.18577   0.87192   0.01267  Uiso   1.00
C63    C     0.32632   0.20820   0.85382   0.01267  Uiso   1.00
C64    C     0.33298   0.24983   0.80348   0.01267  Uiso   1.00
C65    C     0.43129   0.26946   0.76942   0.01267  Uiso   1.00
C66    C     0.52004   0.24705   0.78730   0.01267  Uiso   1.00
C67    C     0.51100   0.20558   0.83824   0.01267  Uiso   1.00
C68    C     0.43823   0.31303   0.71414   0.01267  Uiso   1.00
C69    C     0.54080   0.32018   0.67664   0.01267  Uiso   1.00
C70    C     0.58220   0.41680   0.64620   0.01267  Uiso   1.00
C71    C     0.67724   0.42644   0.61232   0.01267  Uiso   1.00
C72    C     0.73146   0.33809   0.60374   0.01267  Uiso   1.00
C73    C     0.68468   0.23908   0.63284   0.01267  Uiso   1.00
C74    C     0.59199   0.23429   0.67002   0.01267  Uiso   1.00
C75    C     0.83183   0.34709   0.56476   0.01267  Uiso   1.00
C76    C     0.17219   0.94672   0.92612   0.01267  Uiso   1.00
C77    C     0.21449   0.94231   0.87192   0.01267  Uiso   1.00
C78    C     0.31986   0.93798   0.85382   0.01267  Uiso   1.00
C79    C     0.36354   0.94669   0.80348   0.01267  Uiso   1.00
C80    C     0.29929   0.96112   0.76942   0.01267  Uiso   1.00
C81    C     0.19266   0.96565   0.78730   0.01267  Uiso   1.00
C82    C     0.15076   0.95618   0.83824   0.01267  Uiso   1.00
C83    C     0.34763   0.97283   0.71414   0.01267  Uiso   1.00
C84    C     0.28256   0.00318   0.67664   0.01267  Uiso   1.00
C85    C     0.27160   0.93700   0.64620   0.01267  Uiso   1.00
C86    C     0.21044   0.96124   0.61232   0.01267  Uiso   1.00
C87    C     0.16480   0.05817   0.60374   0.01267  Uiso   1.00
C88    C     0.18248   0.12808   0.63284   0.01267  Uiso   1.00
C89    C     0.23799   0.09569   0.67002   0.01267  Uiso   1.00
C90    C     0.10341   0.08815   0.56476   0.01267  Uiso   1.00
C91    C     0.12716   0.17219   0.42612   0.01267  Uiso   1.00
C92    C     0.18577   0.21449   0.37192   0.01267  Uiso   1.00
C93    C     0.20820   0.31986   0.35382   0.01267  Uiso   1.00
C94    C     0.24983   0.36354   0.30348   0.01267  Uiso   1.00
C95    C     0.26946   0.29929   0.26942   0.01267  Uiso   1.00
C96    C     0.24705   0.19266   0.28730   0.01267  Uiso   1.00
C97    C     0.20558   0.15076   0.33824   0.01267  Uiso   1.00
C98    C     0.31303   0.34763   0.21414   0.01267  Uiso   1.00
C99    C     0.32018   0.28256   0.17664   0.01267  Uiso   1.00
C100   C     0.41680   0.27160   0.14620   0.01267  Uiso   1.00
C101   C     0.42644   0.21044   0.11232   0.01267  Uiso   1.00
C102   C     0.33809   0.16480   0.10374   0.01267  Uiso   1.00
C103   C     0.23908   0.18248   0.13284   0.01267  Uiso   1.00
C104   C     0.23429   0.23799   0.17002   0.01267  Uiso   1.00
C105   C     0.34709   0.10341   0.06476   0.01267  Uiso   1.00
C106   C     0.94672   0.40169   0.42612   0.01267  Uiso   1.00
C107   C     0.94231   0.41359   0.37192   0.01267  Uiso   1.00
C108   C     0.93798   0.32632   0.35382   0.01267  Uiso   1.00
C109   C     0.94669   0.33298   0.30348   0.01267  Uiso   1.00
C110   C     0.96112   0.43129   0.26942   0.01267  Uiso   1.00
C111   C     0.96565   0.52004   0.28730   0.01267  Uiso   1.00
C112   C     0.95618   0.51100   0.33824   0.01267  Uiso   1.00
C113   C     0.97283   0.43823   0.21414   0.01267  Uiso   1.00
C114   C     0.00318   0.54080   0.17664   0.01267  Uiso   1.00
C115   C     0.93700   0.58220   0.14620   0.01267  Uiso   1.00
C116   C     0.96124   0.67724   0.11232   0.01267  Uiso   1.00
C117   C     0.05817   0.73146   0.10374   0.01267  Uiso   1.00
C118   C     0.12808   0.68468   0.13284   0.01267  Uiso   1.00
C119   C     0.09569   0.59199   0.17002   0.01267  Uiso   1.00
C120   C     0.08815   0.83183   0.06476   0.01267  Uiso   1.00
O1     O     0.62966   0.06679   0.99132   0.01267  Uiso   1.00
O2     O     0.51462   0.90542   0.06104   0.01267  Uiso   1.00
O3     O     0.68801   0.88629   0.04446   0.01267  Uiso   1.00
O4     O     0.12505   0.73618   0.44010   0.01267  Uiso   1.00
O5     O     0.13420   0.56177   0.46018   0.01267  Uiso   1.00
O6     O     0.64250   0.65427   0.29886   0.01267  Uiso   1.00
O7     O     0.87902   0.94189   0.99132   0.01267  Uiso   1.00
O8     O     0.92434   0.03354   0.06104   0.01267  Uiso   1.00
O9     O     0.76753   0.06925   0.04446   0.01267  Uiso   1.00
O10    O     0.93485   0.82372   0.44010   0.01267  Uiso   1.00
O11    O     0.90562   0.97805   0.46018   0.01267  Uiso   1.00
O12    O     0.55864   0.04687   0.29886   0.01267  Uiso   1.00
O13    O     0.06679   0.87902   0.49132   0.01267  Uiso   1.00
O14    O     0.90542   0.92434   0.56104   0.01267  Uiso   1.00
O15    O     0.88629   0.76753   0.54446   0.01267  Uiso   1.00
O16    O     0.73618   0.93485   0.94010   0.01267  Uiso   1.00
O17    O     0.56177   0.90562   0.96018   0.01267  Uiso   1.00
O18    O     0.65427   0.55864   0.79886   0.01267  Uiso   1.00
O19    O     0.94189   0.62966   0.49132   0.01267  Uiso   1.00
O20    O     0.03354   0.51462   0.56104   0.01267  Uiso   1.00
O21    O     0.06925   0.68801   0.54446   0.01267  Uiso   1.00
O22    O     0.82372   0.12505   0.94010   0.01267  Uiso   1.00
O23    O     0.97805   0.13420   0.96018   0.01267  Uiso   1.00
O24    O     0.04687   0.64250   0.79886   0.01267  Uiso   1.00
O25    O     0.37034   0.93321   0.00868   0.01267  Uiso   1.00
O26    O     0.48538   0.09458   0.93896   0.01267  Uiso   1.00
O27    O     0.31199   0.11371   0.95554   0.01267  Uiso   1.00
O28    O     0.87495   0.26382   0.55990   0.01267  Uiso   1.00
O29    O     0.86580   0.43823   0.53982   0.01267  Uiso   1.00
O30    O     0.35750   0.34573   0.70114   0.01267  Uiso   1.00
O31    O     0.12098   0.05811   0.00868   0.01267  Uiso   1.00
O32    O     0.07566   0.96646   0.93896   0.01267  Uiso   1.00
O33    O     0.23247   0.93075   0.95554   0.01267  Uiso   1.00
O34    O     0.06515   0.17628   0.55990   0.01267  Uiso   1.00
O35    O     0.09438   0.02195   0.53982   0.01267  Uiso   1.00
O36    O     0.44136   0.95313   0.70114   0.01267  Uiso   1.00
O37    O     0.93321   0.12098   0.50868   0.01267  Uiso   1.00
O38    O     0.09458   0.07566   0.43896   0.01267  Uiso   1.00
O39    O     0.11371   0.23247   0.45554   0.01267  Uiso   1.00
O40    O     0.26382   0.06515   0.05990   0.01267  Uiso   1.00
O41    O     0.43823   0.09438   0.03982   0.01267  Uiso   1.00
O42    O     0.34573   0.44136   0.20114   0.01267  Uiso   1.00
O43    O     0.05811   0.37034   0.50868   0.01267  Uiso   1.00
O44    O     0.96646   0.48538   0.43896   0.01267  Uiso   1.00
O45    O     0.93075   0.31199   0.45554   0.01267  Uiso   1.00
O46    O     0.17628   0.87495   0.05990   0.01267  Uiso   1.00
O47    O     0.02195   0.86580   0.03982   0.01267  Uiso   1.00
O48    O     0.95313   0.35750   0.20114   0.01267  Uiso   1.00
