data_ZIBGIC_clean
_audit_creation_date              2014-07-02
_audit_creation_method            'Materials Studio'
_symmetry_space_group_name_H-M    'P1'
_symmetry_Int_Tables_number       1
_symmetry_cell_setting            triclinic
loop_
_symmetry_equiv_pos_as_xyz
  x,y,z
_cell_length_a                    14.7034
_cell_length_b                    14.7034
_cell_length_c                    14.7034
_cell_angle_alpha                 69.6312
_cell_angle_beta                  72.3094
_cell_angle_gamma                 110.3690
loop_
_atom_site_label
_atom_site_type_symbol
_atom_site_fract_x
_atom_site_fract_y
_atom_site_fract_z
_atom_site_U_iso_or_equiv
_atom_site_adp_type
_atom_site_occupancy
Sr1    Sr    0.22895   0.75000   0.52105   0.01267  Uiso   1.00
Sr2    Sr    0.97895   0.25000   0.27105   0.01267  Uiso   1.00
Sr3    Sr    0.77105   0.25000   0.47895   0.01267  Uiso   1.00
Sr4    Sr    0.02105   0.75000   0.72895   0.01267  Uiso   1.00
H1     H     0.35520   0.28230   0.11130   0.01267  Uiso   1.00
H2     H     0.36070   0.99620   0.24550   0.01267  Uiso   1.00
H3     H     0.52190   0.25380   0.28110   0.01267  Uiso   1.00
H4     H     0.23470   0.93680   0.19370   0.01267  Uiso   1.00
H5     H     0.34460   0.00970   0.08010   0.01267  Uiso   1.00
H6     H     0.23120   0.98670   0.08250   0.01267  Uiso   1.00
H7     H     0.46280   0.35700   0.18200   0.01267  Uiso   1.00
H8     H     0.63120   0.16790   0.29870   0.01267  Uiso   1.00
H9     H     0.60360   0.83310   0.48810   0.01267  Uiso   1.00
H10    H     0.10640   0.21770   0.92710   0.01267  Uiso   1.00
H11    H     0.25830   0.50380   0.63550   0.01267  Uiso   1.00
H12    H     0.96510   0.24620   0.73190   0.01267  Uiso   1.00
H13    H     0.36950   0.56320   0.70210   0.01267  Uiso   1.00
H14    H     0.41020   0.49030   0.66510   0.01267  Uiso   1.00
H15    H     0.43080   0.51330   0.75550   0.01267  Uiso   1.00
H16    H     0.96100   0.14300   0.89420   0.01267  Uiso   1.00
H17    H     0.03340   0.33210   0.53670   0.01267  Uiso   1.00
H18    H     0.17880   0.66690   0.22950   0.01267  Uiso   1.00
H19    H     0.57290   0.96650   0.14480   0.01267  Uiso   1.00
H20    H     0.86450   0.10620   0.13930   0.01267  Uiso   1.00
H21    H     0.76810   0.30300   0.97810   0.01267  Uiso   1.00
H22    H     0.79790   0.92840   0.26530   0.01267  Uiso   1.00
H23    H     0.83490   0.92470   0.15540   0.01267  Uiso   1.00
H24    H     0.74450   0.81370   0.26880   0.01267  Uiso   1.00
H25    H     0.60580   0.14480   0.03720   0.01267  Uiso   1.00
H26    H     0.96330   0.42990   0.86880   0.01267  Uiso   1.00
H27    H     0.27050   0.59170   0.89640   0.01267  Uiso   1.00
H28    H     0.38870   0.53350   0.39360   0.01267  Uiso   1.00
H29    H     0.25450   0.39380   0.24170   0.01267  Uiso   1.00
H30    H     0.21890   0.19700   0.53490   0.01267  Uiso   1.00
H31    H     0.30630   0.57160   0.13050   0.01267  Uiso   1.00
H32    H     0.41990   0.57530   0.08980   0.01267  Uiso   1.00
H33    H     0.41750   0.68630   0.06920   0.01267  Uiso   1.00
H34    H     0.31800   0.35520   0.53900   0.01267  Uiso   1.00
H35    H     0.20130   0.07010   0.46660   0.01267  Uiso   1.00
H36    H     0.01190   0.90830   0.32120   0.01267  Uiso   1.00
H37    H     0.64480   0.71770   0.88870   0.01267  Uiso   1.00
H38    H     0.63930   0.00380   0.75450   0.01267  Uiso   1.00
H39    H     0.47810   0.74620   0.71890   0.01267  Uiso   1.00
H40    H     0.76530   0.06320   0.80630   0.01267  Uiso   1.00
H41    H     0.65540   0.99030   0.91990   0.01267  Uiso   1.00
H42    H     0.76880   0.01330   0.91750   0.01267  Uiso   1.00
H43    H     0.53720   0.64300   0.81800   0.01267  Uiso   1.00
H44    H     0.36880   0.83210   0.70130   0.01267  Uiso   1.00
H45    H     0.39640   0.16690   0.51190   0.01267  Uiso   1.00
H46    H     0.89360   0.78230   0.07290   0.01267  Uiso   1.00
H47    H     0.74170   0.49620   0.36450   0.01267  Uiso   1.00
H48    H     0.03490   0.75380   0.26810   0.01267  Uiso   1.00
H49    H     0.63050   0.43680   0.29790   0.01267  Uiso   1.00
H50    H     0.58980   0.50970   0.33490   0.01267  Uiso   1.00
H51    H     0.56920   0.48670   0.24450   0.01267  Uiso   1.00
H52    H     0.03900   0.85700   0.10580   0.01267  Uiso   1.00
H53    H     0.96660   0.66790   0.46330   0.01267  Uiso   1.00
H54    H     0.82120   0.33310   0.77050   0.01267  Uiso   1.00
H55    H     0.42710   0.03350   0.85520   0.01267  Uiso   1.00
H56    H     0.13550   0.89380   0.86070   0.01267  Uiso   1.00
H57    H     0.23190   0.69700   0.02190   0.01267  Uiso   1.00
H58    H     0.20210   0.07160   0.73470   0.01267  Uiso   1.00
H59    H     0.16510   0.07530   0.84460   0.01267  Uiso   1.00
H60    H     0.25550   0.18630   0.73120   0.01267  Uiso   1.00
H61    H     0.39420   0.85520   0.96280   0.01267  Uiso   1.00
H62    H     0.03670   0.57010   0.13120   0.01267  Uiso   1.00
H63    H     0.72950   0.40830   0.10360   0.01267  Uiso   1.00
H64    H     0.61130   0.46650   0.60640   0.01267  Uiso   1.00
H65    H     0.74550   0.60620   0.75830   0.01267  Uiso   1.00
H66    H     0.78110   0.80300   0.46510   0.01267  Uiso   1.00
H67    H     0.69370   0.42840   0.86950   0.01267  Uiso   1.00
H68    H     0.58010   0.42470   0.91020   0.01267  Uiso   1.00
H69    H     0.58250   0.31370   0.93080   0.01267  Uiso   1.00
H70    H     0.68200   0.64480   0.46100   0.01267  Uiso   1.00
H71    H     0.79870   0.92990   0.53340   0.01267  Uiso   1.00
H72    H     0.98810   0.09170   0.67880   0.01267  Uiso   1.00
C1     C     0.37830   0.24030   0.15180   0.01267  Uiso   1.00
C2     C     0.34890   0.13290   0.17040   0.01267  Uiso   1.00
C3     C     0.38210   0.06900   0.23210   0.01267  Uiso   1.00
C4     C     0.44730   0.11470   0.27360   0.01267  Uiso   1.00
C5     C     0.47780   0.22280   0.25400   0.01267  Uiso   1.00
C6     C     0.48760   0.04970   0.33270   0.01267  Uiso   1.00
C7     C     0.60090   0.01290   0.38700   0.01267  Uiso   1.00
C8     C     0.27350  -0.00000   0.11970   0.01267  Uiso   1.00
C9     C     0.50750   0.91420   0.42450   0.01267  Uiso   1.00
C10    C     0.70270   0.03790   0.39880   0.01267  Uiso   1.00
C11    C     0.47700   0.79550   0.48770   0.01267  Uiso   1.00
C12    C     0.44280   0.28480   0.19400   0.01267  Uiso   1.00
C13    C     0.10790   0.25970   0.86200   0.01267  Uiso   1.00
C14    C     0.19670   0.36710   0.78400   0.01267  Uiso   1.00
C15    C     0.19890   0.43100   0.68690   0.01267  Uiso   1.00
C16    C     0.11170   0.38530   0.66740   0.01267  Uiso   1.00
C17    C     0.02320   0.27720   0.74500   0.01267  Uiso   1.00
C18    C     0.11760   0.45030   0.56210   0.01267  Uiso   1.00
C19    C     0.10010   0.48710   0.41200   0.01267  Uiso   1.00
C20    C     0.38030   0.50000   0.72650   0.01267  Uiso   1.00
C21    C     0.16130   0.58580   0.40670   0.01267  Uiso   1.00
C22    C     0.06330   0.46210   0.33520   0.01267  Uiso   1.00
C23    C     0.21680   0.70450   0.31850   0.01267  Uiso   1.00
C24    C     0.02120   0.21520   0.84200   0.01267  Uiso   1.00
C25    C     0.63800   0.03010   0.12170   0.01267  Uiso   1.00
C26    C     0.71600   0.01930   0.15110   0.01267  Uiso   1.00
C27    C     0.81310   0.11420   0.11790   0.01267  Uiso   1.00
C28    C     0.83260   0.22090   0.05270   0.01267  Uiso   1.00
C29    C     0.75500   0.23180   0.02220   0.01267  Uiso   1.00
C30    C     0.93790   0.32030   0.01240   0.01267  Uiso   1.00
C31    C     0.08800   0.48790   0.89910   0.01267  Uiso   1.00
C32    C     0.77350   0.89320   0.22650   0.01267  Uiso   1.00
C33    C     0.09330   0.43200   0.99250   0.01267  Uiso   1.00
C34    C     0.16480   0.60150   0.79730   0.01267  Uiso   1.00
C35    C     0.18150   0.46470   0.02300   0.01267  Uiso   1.00
C36    C     0.65800   0.13680   0.05720   0.01267  Uiso   1.00
C37    C     0.34820   0.46990   0.39210   0.01267  Uiso   1.00
C38    C     0.32960   0.48070   0.30330   0.01267  Uiso   1.00
C39    C     0.26790   0.38580   0.30110   0.01267  Uiso   1.00
C40    C     0.22640   0.27910   0.38830   0.01267  Uiso   1.00
C41    C     0.24600   0.26820   0.47680   0.01267  Uiso   1.00
C42    C     0.16730   0.17970   0.38240   0.01267  Uiso   1.00
C43    C     0.11300   0.01210   0.39990   0.01267  Uiso   1.00
C44    C     0.38030   0.60680   0.11970   0.01267  Uiso   1.00
C45    C     0.07550   0.06800   0.33870   0.01267  Uiso   1.00
C46    C     0.10120   0.89850   0.43670   0.01267  Uiso   1.00
C47    C     0.01230   0.03530   0.28320   0.01267  Uiso   1.00
C48    C     0.30600   0.36320   0.47880   0.01267  Uiso   1.00
C49    C     0.62170   0.75970   0.84820   0.01267  Uiso   1.00
C50    C     0.65110   0.86710   0.82960   0.01267  Uiso   1.00
C51    C     0.61790   0.93100   0.76790   0.01267  Uiso   1.00
C52    C     0.55270   0.88530   0.72640   0.01267  Uiso   1.00
C53    C     0.52220   0.77720   0.74600   0.01267  Uiso   1.00
C54    C     0.51240   0.95030   0.66730   0.01267  Uiso   1.00
C55    C     0.39910   0.98710   0.61300   0.01267  Uiso   1.00
C56    C     0.72650   1.00000   0.88030   0.01267  Uiso   1.00
C57    C     0.49250   0.08580   0.57550   0.01267  Uiso   1.00
C58    C     0.29730   0.96210   0.60120   0.01267  Uiso   1.00
C59    C     0.52300   0.20450   0.51230   0.01267  Uiso   1.00
C60    C     0.55720   0.71520   0.80600   0.01267  Uiso   1.00
C61    C     0.89210   0.74030   0.13800   0.01267  Uiso   1.00
C62    C     0.80330   0.63290   0.21600   0.01267  Uiso   1.00
C63    C     0.80110   0.56900   0.31310   0.01267  Uiso   1.00
C64    C     0.88830   0.61470   0.33260   0.01267  Uiso   1.00
C65    C     0.97680   0.72280   0.25500   0.01267  Uiso   1.00
C66    C     0.88240   0.54970   0.43790   0.01267  Uiso   1.00
C67    C     0.89990   0.51290   0.58800   0.01267  Uiso   1.00
C68    C     0.61970   0.50000   0.27350   0.01267  Uiso   1.00
C69    C     0.83870   0.41420   0.59330   0.01267  Uiso   1.00
C70    C     0.93670   0.53790   0.66480   0.01267  Uiso   1.00
C71    C     0.78320   0.29550   0.68150   0.01267  Uiso   1.00
C72    C     0.97880   0.78480   0.15800   0.01267  Uiso   1.00
C73    C     0.36200   0.96990   0.87830   0.01267  Uiso   1.00
C74    C     0.28400   0.98070   0.84890   0.01267  Uiso   1.00
C75    C     0.18690   0.88580   0.88210   0.01267  Uiso   1.00
C76    C     0.16740   0.77910   0.94730   0.01267  Uiso   1.00
C77    C     0.24500   0.76820   0.97780   0.01267  Uiso   1.00
C78    C     0.06210   0.67970   0.98760   0.01267  Uiso   1.00
C79    C     0.91200   0.51210   0.10090   0.01267  Uiso   1.00
C80    C     0.22650   0.10680   0.77350   0.01267  Uiso   1.00
C81    C     0.90670   0.56800   0.00750   0.01267  Uiso   1.00
C82    C     0.83520   0.39850   0.20270   0.01267  Uiso   1.00
C83    C     0.81850   0.53530   0.97700   0.01267  Uiso   1.00
C84    C     0.34200   0.86320   0.94280   0.01267  Uiso   1.00
C85    C     0.65180   0.53010   0.60790   0.01267  Uiso   1.00
C86    C     0.67040   0.51930   0.69670   0.01267  Uiso   1.00
C87    C     0.73210   0.61420   0.69890   0.01267  Uiso   1.00
C88    C     0.77360   0.72090   0.61170   0.01267  Uiso   1.00
C89    C     0.75400   0.73180   0.52320   0.01267  Uiso   1.00
C90    C     0.83270   0.82030   0.61760   0.01267  Uiso   1.00
C91    C     0.88700   0.98790   0.60010   0.01267  Uiso   1.00
C92    C     0.61970   0.39320   0.88030   0.01267  Uiso   1.00
C93    C     0.92450   0.93200   0.66130   0.01267  Uiso   1.00
C94    C     0.89880   0.10150   0.56330   0.01267  Uiso   1.00
C95    C     0.98770   0.96470   0.71680   0.01267  Uiso   1.00
C96    C     0.69400   0.63680   0.52120   0.01267  Uiso   1.00
N1     N     0.43598   0.93809   0.39125   0.01267  Uiso   1.00
N2     N     0.58585   0.09680   0.33049   0.01267  Uiso   1.00
N3     N     0.17066   0.56191   0.50211   0.01267  Uiso   1.00
N4     N     0.07271   0.40320   0.51095   0.01267  Uiso   1.00
N5     N     0.99789   0.32723   0.06402   0.01267  Uiso   1.00
N6     N     0.98905   0.41634   0.91415   0.01267  Uiso   1.00
N7     N     0.10875   0.17277   0.32934   0.01267  Uiso   1.00
N8     N     0.16951   0.08366   0.42729   0.01267  Uiso   1.00
N9     N     0.56402   0.06191   0.60875   0.01267  Uiso   1.00
N10    N     0.41415   0.90320   0.66951   0.01267  Uiso   1.00
N11    N     0.82934   0.43809   0.49789   0.01267  Uiso   1.00
N12    N     0.92729   0.59680   0.48905   0.01267  Uiso   1.00
N13    N     0.00211   0.67277   0.93598   0.01267  Uiso   1.00
N14    N     0.01095   0.58366   0.08585   0.01267  Uiso   1.00
N15    N     0.89125   0.82723   0.67066   0.01267  Uiso   1.00
N16    N     0.83049   0.91634   0.57271   0.01267  Uiso   1.00
O1     O     0.28790   0.09700   0.12410   0.01267  Uiso   1.00
O2     O     0.76838   0.13874   0.36050   0.01267  Uiso   1.00
O3     O     0.71397   0.95597   0.44588   0.01267  Uiso   1.00
O4     O     0.38538   0.71906   0.51888   0.01267  Uiso   1.00
O5     O     0.54863   0.77396   0.50987   0.01267  Uiso   1.00
O6     O     0.27890   0.40300   0.80910   0.01267  Uiso   1.00
O7     O     0.00076   0.36126   0.37036   0.01267  Uiso   1.00
O8     O     0.09815   0.54403   0.24200   0.01267  Uiso   1.00
O9     O     0.26206   0.78094   0.33368   0.01267  Uiso   1.00
O10    O     0.21617   0.72604   0.22533   0.01267  Uiso   1.00
O11    O     0.69090   0.91200   0.21210   0.01267  Uiso   1.00
O12    O     0.12964   0.62888   0.73162   0.01267  Uiso   1.00
O13    O     0.25800   0.65985   0.78603   0.01267  Uiso   1.00
O14    O     0.16632   0.40426   0.11462   0.01267  Uiso   1.00
O15    O     0.27467   0.55850   0.95137   0.01267  Uiso   1.00
O16    O     0.37590   0.58800   0.22110   0.01267  Uiso   1.00
O17    O     0.13950   0.87112   0.49924   0.01267  Uiso   1.00
O18    O     0.05412   0.84015   0.40185   0.01267  Uiso   1.00
O19    O     0.98112   0.09574   0.23794   0.01267  Uiso   1.00
O20    O     0.99013   0.94150   0.28383   0.01267  Uiso   1.00
O21    O     0.71210   0.90300   0.87590   0.01267  Uiso   1.00
O22    O     0.23162   0.86126   0.63950   0.01267  Uiso   1.00
O23    O     0.28603   0.04403   0.55412   0.01267  Uiso   1.00
O24    O     0.61462   0.28094   0.48112   0.01267  Uiso   1.00
O25    O     0.45137   0.22604   0.49013   0.01267  Uiso   1.00
O26    O     0.72110   0.59700   0.19090   0.01267  Uiso   1.00
O27    O     0.99924   0.63874   0.62964   0.01267  Uiso   1.00
O28    O     0.90185   0.45597   0.75800   0.01267  Uiso   1.00
O29    O     0.73794   0.21906   0.66632   0.01267  Uiso   1.00
O30    O     0.78383   0.27396   0.77467   0.01267  Uiso   1.00
O31    O     0.30910   0.08800   0.78790   0.01267  Uiso   1.00
O32    O     0.87036   0.37112   0.26838   0.01267  Uiso   1.00
O33    O     0.74200   0.34015   0.21397   0.01267  Uiso   1.00
O34    O     0.83368   0.59574   0.88538   0.01267  Uiso   1.00
O35    O     0.72533   0.44150   0.04863   0.01267  Uiso   1.00
O36    O     0.62410   0.41200   0.77890   0.01267  Uiso   1.00
O37    O     0.86050   0.12888   0.50076   0.01267  Uiso   1.00
O38    O     0.94588   0.15985   0.59815   0.01267  Uiso   1.00
O39    O     0.01888   0.90426   0.76206   0.01267  Uiso   1.00
O40    O     0.00987   0.05850   0.71617   0.01267  Uiso   1.00
