#{'_ref': 'TBD', '_srcid': 'CAKYAQ_clean', 'submitters': [{'name': 'Dalar Nazarian Jeff Camp and David Sholl', 'email': 'dalar@gatech.edu jcamp6@gatech.edu'}], '_method': 'VASP DFT with PBE;DDEC'}
data_ZnH3C7NO4
_symmetry_space_group_name_H-M   'P 1'
_cell_length_a   10.39350015
_cell_length_b   17.88400000
_cell_length_c   21.00900039
_cell_angle_alpha   90.12599954
_cell_angle_beta   90.16699945
_cell_angle_gamma   90.14900172
_symmetry_Int_Tables_number   1
_chemical_formula_structural   ZnH3C7NO4
_chemical_formula_sum   'Zn8 H24 C56 N8 O32'
_cell_volume   3905.05815707
_cell_formula_units_Z   8
loop_
 _symmetry_equiv_pos_site_id
 _symmetry_equiv_pos_as_xyz
  1  'x, y, z'
loop_
 _atom_site_label
 _atom_site_fract_x
 _atom_site_fract_y
 _atom_site_fract_z
 _atom_site_charge
 Zn 0.843714 0.124674 0.694549   0.888425
 Zn 0.850178 0.124733 0.194675   0.894992
 Zn 0.649606 0.625049 0.802611   0.925849
 Zn 0.650218 0.624885 0.305177   0.904577
 Zn 0.150284 0.371626 0.949716   0.914644
 Zn 0.149988 0.371685 0.45022   0.909687
 Zn 0.33922 0.871978 0.552891   0.901564
 Zn 0.344906 0.869066 0.055318   0.951361
 H 0.448708 0.760106 0.645304   0.115514
 H 0.455174 0.759407 0.148041   0.112899
 H 0.747268 0.874635 0.750483   0.14162
 H 0.753986 0.875112 0.252067   0.14178
 H 0.5215 0.984466 0.605775   0.114383
 H 0.529042 0.983005 0.105946   0.115387
 H 0.038244 0.260617 0.858126   0.116496
 H 0.043438 0.26002 0.356835   0.115098
 H 0.743746 0.375166 0.746621   0.141504
 H 0.747486 0.374193 0.246996   0.141198
 H 0.967962 0.483801 0.893421   0.109046
 H 0.968348 0.484842 0.393907   0.113771
 H 0.539712 0.736499 0.395699   0.115175
 H 0.541872 0.735623 0.0   0.133988
 H 0.24493 0.622109 0.502308   0.142095
 H 0.249792 0.619868 0.002832   0.145294
 H 0.470214 0.510895 0.85586   0.105428
 H 0.470182 0.511001 0.358313   0.115542
 H 0.95917 0.234317 0.102254   0.116881
 H 0.952142 0.235992 0.603191   0.116242
 H 0.25105 0.119295 0.998664   0.141205
 H 0.246288 0.123095 0.501504   0.140223
 H 0.024438 0.012176 0.646867   0.121406
 H 0.028488 0.010662 0.144986   0.117468
 C 0.504962 0.81008 0.656132   0.157603
 C 0.511612 0.809473 0.158308   0.149206
 C 0.599684 0.809126 0.703368   -0.142292
 C 0.606468 0.809016 0.205448   -0.144309
 C 0.671498 0.874021 0.714533   0.038639
 C 0.678416 0.873992 0.216018   0.037961
 C 0.546214 0.935319 0.633803   0.157734
 C 0.553504 0.93428 0.134553   0.158173
 C 0.721272 0.008242 0.687519   0.62741
 C 0.728806 0.007777 0.187754   0.625098
 C 0.644848 0.938052 0.678936   -0.150073
 C 0.652236 0.93751 0.17964   -0.146292
 C 0.62243 0.739626 0.741116   0.624791
 C 0.628278 0.739909 0.243812   0.623989
 C 0.982562 0.309562 0.841972   0.143986
 C 0.988176 0.310827 0.34238   0.155435
 C 0.888766 0.309025 0.794337   -0.145239
 C 0.894636 0.309408 0.294556   -0.147347
 C 0.8185 0.374152 0.783074   0.046839
 C 0.82241 0.373896 0.283383   0.043214
 C 0.94295 0.434863 0.864915   0.1755
 C 0.944946 0.435659 0.365374   0.158579
 C 0.770364 0.50838 0.810164   0.627837
 C 0.770712 0.50786 0.311053   0.629573
 C 0.845392 0.437998 0.819223   -0.157547
 C 0.847508 0.437984 0.319592   -0.151363
 C 0.866368 0.239708 0.756074   0.628156
 C 0.874004 0.239598 0.256486   0.626106
 C 0.48678 0.685417 0.90667   -0.029863
 C 0.484398 0.68642 0.406995   0.160028
 C 0.389932 0.68777 0.454021   -0.148854
 C 0.394018 0.686031 0.0   -0.215525
 C 0.32391 0.620791 0.966286   0.009463
 C 0.319982 0.622552 0.466209   0.039888
 C 0.446256 0.559938 0.884299   0.121473
 C 0.445178 0.560481 0.385961   0.160969
 C 0.2757 0.486122 0.939857   0.642097
 C 0.273462 0.487165 0.440975   0.624966
 C 0.3501 0.55677 0.930411   -0.175622
 C 0.347548 0.55795 0.431365   -0.148544
 C 0.366484 0.758166 0.490541   0.624348
 C 0.372016 0.755684 0.0   0.66439
 C 0.007958 0.186975 0.597598   0.162572
 C 0.012948 0.184827 0.094103   0.163052
 C 0.106322 0.185433 0.046524   -0.145129
 C 0.10129 0.188309 0.550013   -0.146843
 C 0.171854 0.123448 0.537915   0.030129
 C 0.176502 0.120289 0.035006   0.034314
 C 0.04872 0.061528 0.618987   0.152978
 C 0.05292 0.059604 0.116622   0.157931
 C 0.219186 0.988459 0.563101   0.622613
 C 0.22465 0.985919 0.062311   0.627437
 C 0.145402 0.059054 0.573117   -0.140255
 C 0.149934 0.056452 0.070967   -0.146152
 C 0.128348 0.255194 0.00904   0.62224
 C 0.122906 0.258303 0.51284   0.622568
 N 0.4783 0.872253 0.622303   -0.331877
 N 0.485026 0.8712 0.123913   -0.334189
 N 0.011562 0.373179 0.8805   -0.343578
 N 0.013288 0.372056 0.380122   -0.336838
 N 0.51263 0.62335 0.872399   -0.255211
 N 0.51184 0.623737 0.373875   -0.333862
 N 0.981736 0.12378 0.625667   -0.314623
 N 0.988784 0.122483 0.12599   -0.322542
 O 0.6782 0.069229 0.663832   -0.565784
 O 0.688282 0.067981 0.161573   -0.565486
 O 0.828164 0.006049 0.71705   -0.563113
 O 0.8331 0.006455 0.219518   -0.560919
 O 0.57234 0.678065 0.722169   -0.567847
 O 0.577766 0.678333 0.22487   -0.566468
 O 0.689882 0.743034 0.791793   -0.562687
 O 0.694554 0.743457 0.294743   -0.56061
 O 0.811392 0.568912 0.835997   -0.563779
 O 0.812276 0.568729 0.336271   -0.569477
 O 0.666568 0.506755 0.777974   -0.557443
 O 0.665448 0.505723 0.280266   -0.560085
 O 0.916448 0.178277 0.775029   -0.566856
 O 0.926788 0.178903 0.275088   -0.564914
 O 0.800112 0.243017 0.70514   -0.560835
 O 0.805796 0.241756 0.205999   -0.56232
 O 0.31569 0.425625 0.914265   -0.565492
 O 0.312274 0.427269 0.413927   -0.566009
 O 0.17235 0.487755 0.972415   -0.575918
 O 0.171974 0.487868 0.474886   -0.561127
 O 0.420544 0.818703 0.472524   -0.564541
 O 0.426416 0.816353 0.0   -0.567348
 O 0.29451 0.756312 0.539625   -0.561581
 O 0.300666 0.753204 0.04167   -0.405831
 O 0.178042 0.928012 0.588516   -0.564184
 O 0.183502 0.925776 0.088438   -0.575122
 O 0.322148 0.989784 0.530412   -0.562364
 O 0.328322 0.987028 0.030347   -0.565341
 O 0.077792 0.316224 0.028757   -0.565027
 O 0.067784 0.318584 0.530451   -0.562301
 O 0.19464 0.252953 0.958289   -0.560303
 O 0.194648 0.256358 0.463653   -0.564939
