#{'_ref': 'TBD', '_srcid': 'CAKYAQ_clean', 'submitters': [{'name': 'Dalar Nazarian Jeff Camp and David Sholl', 'email': 'dalar@gatech.edu jcamp6@gatech.edu'}], '_method': 'VASP DFT with PBE;DDEC'}
data_AgH5(C2N)2
_symmetry_space_group_name_H-M   'P 1'
_cell_length_a   11.62737049
_cell_length_b   11.63799994
_cell_length_c   11.65068046
_cell_angle_alpha   95.29676749
_cell_angle_beta   116.29872042
_cell_angle_gamma   95.18616589
_symmetry_Int_Tables_number   1
_chemical_formula_structural   AgH5(C2N)2
_chemical_formula_sum   'Ag8 H40 C32 N16'
_cell_volume   1392.04197792
_cell_formula_units_Z   8
loop_
 _symmetry_equiv_pos_site_id
 _symmetry_equiv_pos_as_xyz
  1  'x, y, z'
loop_
 _atom_site_label
 _atom_site_fract_x
 _atom_site_fract_y
 _atom_site_fract_z
 _atom_site_charge
 Ag 0.381559 0.355908 0.293375   0.301401
 Ag 0.939947 0.247986 0.560365   0.328081
 Ag 0.206068 0.143074 0.11892   0.300472
 Ag 0.001179 0.501858 0.500467   0.298217
 Ag 0.999485 0.998154 0.498787   0.297786
 Ag 0.618471 0.644092 0.706655   0.30253
 Ag 0.060082 0.752014 0.439664   0.329488
 Ag 0.793961 0.856928 0.881111   0.302059
 H 0.552322 0.33862 0.127344   0.108768
 H 0.803278 0.286202 0.24328   0.10721
 H 0.543705 0.26589 0.524003   0.123214
 H 0.688351 0.20105 0.586273   0.124799
 H 0.696737 0.355204 0.614857   0.139497
 H 0.257319 0.208588 0.697777   0.107718
 H 0.372693 0.157216 0.948687   0.108845
 H 0.913196 0.296788 0.81072   0.12499
 H 0.884451 0.142876 0.803901   0.138656
 H 0.975431 0.233382 0.955957   0.123481
 H 0.898194 0.555548 0.901076   0.117983
 H 0.071674 0.500426 0.807434   0.119496
 H 0.624461 0.569706 0.438231   0.120041
 H 0.757805 0.593136 0.403271   0.130185
 H 0.718158 0.7108 0.482066   0.135193
 H 0.102951 0.445396 0.099147   0.118198
 H 0.930553 0.502786 0.193371   0.119627
 H 0.24455 0.410534 0.597734   0.130484
 H 0.377494 0.431926 0.561874   0.118938
 H 0.28256 0.291536 0.519086   0.135697
 H 0.598909 0.944638 0.602617   0.118546
 H 0.692132 0.999554 0.429092   0.12022
 H 0.063147 0.931366 0.875085   0.120569
 H 0.097591 0.90699 0.741679   0.130711
 H 0.01912 0.789888 0.782162   0.135504
 H 0.400857 0.05445 0.396323   0.118467
 H 0.306973 0.997284 0.568703   0.120575
 H 0.901358 0.089366 0.255878   0.13046
 H 0.936728 0.06693 0.122888   0.119476
 H 0.979706 0.20776 0.21697   0.135953
 H 0.447705 0.661378 0.872685   0.108925
 H 0.19675 0.7138 0.756748   0.107553
 H 0.456325 0.73411 0.476027   0.123186
 H 0.311679 0.79895 0.413757   0.124601
 H 0.303294 0.644796 0.385174   0.139517
 H 0.742709 0.791414 0.302253   0.108063
 H 0.627335 0.842786 0.051343   0.108784
 H 0.086832 0.703212 0.189308   0.124782
 H 0.115578 0.857124 0.19613   0.138807
 H 0.024598 0.76662 0.044074   0.123556
 C 0.655428 0.285664 0.420994   0.416579
 C 0.609419 0.318176 0.223717   -0.060442
 C 0.733663 0.291792 0.281073   -0.059984
 C 0.645727 0.27643 0.543101   -0.45341
 C 0.078741 0.211482 0.844759   0.417172
 C 0.219202 0.203744 0.76713   -0.061374
 C 0.276309 0.177936 0.891363   -0.060249
 C 0.956368 0.221706 0.854138   -0.452944
 C 0.811506 0.585332 0.602486   0.42279
 C 0.892777 0.558106 0.806037   -0.069098
 C 0.979074 0.531526 0.759976   -0.072588
 C 0.723273 0.61658 0.474791   -0.440381
 C 0.190176 0.417026 0.398168   0.420628
 C 0.108633 0.443472 0.194371   -0.068566
 C 0.022876 0.471196 0.240728   -0.073152
 C 0.278396 0.38592 0.525942   -0.439795
 C 0.898104 0.915016 0.68862   0.423678
 C 0.694067 0.942104 0.607823   -0.068281
 C 0.739921 0.968582 0.521515   -0.074071
 C 0.026236 0.883994 0.77658   -0.442274
 C 0.101205 0.082628 0.309655   0.420311
 C 0.305494 0.056344 0.390798   -0.067715
 C 0.259307 0.028732 0.476543   -0.075097
 C 0.973 0.11349 0.221662   -0.441045
 C 0.344602 0.714336 0.579036   0.416647
 C 0.39061 0.681824 0.776312   -0.060486
 C 0.266366 0.70821 0.718956   -0.060721
 C 0.354304 0.72357 0.45693   -0.453445
 C 0.921287 0.78852 0.155271   0.41739
 C 0.780826 0.796258 0.2329   -0.061874
 C 0.723719 0.822066 0.108667   -0.059704
 C 0.04366 0.778296 0.145892   -0.453071
 N 0.560146 0.314054 0.312282   -0.377848
 N 0.762154 0.27063 0.40535   -0.385828
 N 0.094742 0.225548 0.738264   -0.385454
 N 0.187401 0.183076 0.940247   -0.377298
 N 0.78697 0.591692 0.706206   -0.385918
 N 0.92734 0.548904 0.63148   -0.376726
 N 0.07479 0.454328 0.369386   -0.375372
 N 0.21427 0.409656 0.29417   -0.384988
 N 0.794326 0.908658 0.713322   -0.385765
 N 0.868721 0.95129 0.572943   -0.376717
 N 0.130343 0.045502 0.424889   -0.374504
 N 0.205284 0.089998 0.285432   -0.383615
 N 0.439883 0.685946 0.687747   -0.377581
 N 0.237875 0.729372 0.594679   -0.38578
 N 0.905285 0.774454 0.261765   -0.385785
 N 0.812628 0.816926 0.059782   -0.377562
