#{'_ref': 'TBD', '_srcid': 'CAKYAQ_clean', 'submitters': [{'name': 'Dalar Nazarian Jeff Camp and David Sholl', 'email': 'dalar@gatech.edu jcamp6@gatech.edu'}], '_method': 'VASP DFT with PBE;DDEC'}
data_AgH4C6NO2
_symmetry_space_group_name_H-M   'P 1'
_cell_length_a   7.98300001
_cell_length_b   14.44100000
_cell_length_c   14.45299973
_cell_angle_alpha   89.78599958
_cell_angle_beta   89.65399911
_cell_angle_gamma   85.67899873
_symmetry_Int_Tables_number   1
_chemical_formula_structural   AgH4C6NO2
_chemical_formula_sum   'Ag8 H32 C48 N8 O16'
_cell_volume   1661.4027317
_cell_formula_units_Z   8
loop_
 _symmetry_equiv_pos_site_id
 _symmetry_equiv_pos_as_xyz
  1  'x, y, z'
loop_
 _atom_site_label
 _atom_site_fract_x
 _atom_site_fract_y
 _atom_site_fract_z
 _atom_site_charge
 Ag 0.738434 0.066452 0.56955   0.430131
 Ag 0.22962 0.062911 0.574622   0.429727
 Ag 0.773422 0.437271 0.074887   0.428914
 Ag 0.257039 0.43314 0.069313   0.425925
 Ag 0.773618 0.93757 0.425024   0.430537
 Ag 0.259315 0.93323 0.430289   0.42763
 Ag 0.740982 0.5667 0.92999   0.428699
 Ag 0.22985 0.56332 0.924778   0.42641
 H 0.107523 0.312402 0.383768   0.132082
 H 0.604533 0.315806 0.377583   0.13131
 H 0.997671 0.427361 0.262435   0.091467
 H 0.489091 0.428284 0.255533   0.09181
 H 0.798697 0.220339 0.110452   0.097119
 H 0.29192 0.217362 0.108221   0.092426
 H 0.906488 0.097274 0.223463   0.132264
 H 0.406214 0.096597 0.221831   0.131033
 H 0.39157 0.184306 0.878986   0.130529
 H 0.0 0.187324 0.883571   0.105497
 H 0.507229 0.071932 0.756936   0.090507
 H 0.000869999999999 0.072708 0.762436   0.099587
 H 0.711436 0.282354 0.609326   0.093814
 H 0.206974 0.279576 0.610623   0.093836
 H 0.598178 0.402945 0.72322   0.130245
 H 0.097377 0.402402 0.723138   0.123346
 H 0.396376 0.683867 0.620725   0.129445
 H 0.0 0.687685 0.616498   0.107362
 H 0.511909 0.57143 0.742807   0.090781
 H 0.004305 0.572901 0.737585   0.098735
 H 0.707828 0.78251 0.890429   0.093464
 H 0.2047 0.780155 0.888614   0.093011
 H 0.594649 0.903125 0.776375   0.130436
 H 0.095061 0.903081 0.775995   0.124355
 H 0.112283 0.812489 0.11618   0.131395
 H 0.611054 0.815913 0.12182   0.131144
 H 0.002181 0.927322 0.237426   0.091327
 H 0.494569 0.928371 0.243577   0.090749
 H 0.796955 0.720723 0.390022   0.097224
 H 0.290616 0.717904 0.391301   0.09324
 H 0.904919 0.597749 0.277185   0.131865
 H 0.405594 0.597178 0.277995   0.131353
 C 0.594216 0.127629 0.376262   0.605983
 C 0.091745 0.124821 0.379877   0.603851
 C 0.015805 0.195943 0.31232   0.021002
 C 0.514218 0.197487 0.308637   0.02082
 C 0.038562 0.290264 0.324043   -0.160519
 C 0.534746 0.292238 0.318777   -0.160635
 C 0.976739 0.353776 0.257685   0.112472
 C 0.469631 0.354435 0.252024   0.112207
 C 0.867988 0.23796 0.171956   0.111201
 C 0.36203 0.236443 0.168915   0.115181
 C 0.928034 0.169942 0.234379   -0.16634
 C 0.425524 0.169697 0.231737   -0.165311
 C 0.90845 0.374926 0.879688   0.597644
 C 0.405964 0.372273 0.877595   0.608216
 C 0.485967 0.302359 0.810018   0.020167
 C 0.0 0.303821 0.812156   0.011828
 C 0.463135 0.207761 0.820165   -0.159765
 C 0.0 0.209561 0.82389   -0.100878
 C 0.52818 0.145629 0.75337   0.113409
 C 0.023108 0.146171 0.757654   0.09647
 C 0.639804 0.26332 0.670094   0.114577
 C 0.135675 0.261891 0.671986   0.102226
 C 0.576829 0.33 0.733055   -0.164905
 C 0.074714 0.329798 0.734209   -0.16194
 C 0.908616 0.875367 0.620015   0.597564
 C 0.406298 0.87218 0.622134   0.607284
 C 0.48652 0.802248 0.689641   0.019681
 C 0.0 0.804309 0.687494   0.013454
 C 0.466072 0.707473 0.679546   -0.156466
 C 0.0 0.709945 0.675977   -0.104511
 C 0.531096 0.645309 0.746361   0.11198
 C 0.025237 0.646497 0.742193   0.098869
 C 0.638116 0.763356 0.829614   0.11457
 C 0.134673 0.762427 0.827413   0.106118
 C 0.575113 0.830038 0.766589   -0.165005
 C 0.073678 0.830377 0.765153   -0.163874
 C 0.597637 0.627822 0.123653   0.606381
 C 0.092442 0.625087 0.120151   0.603773
 C 0.017207 0.696211 0.187904   0.022233
 C 0.517259 0.697825 0.191021   0.021543
 C 0.041957 0.790397 0.176053   -0.161017
 C 0.539541 0.792453 0.180663   -0.161854
 C 0.979901 0.853874 0.242335   0.112247
 C 0.473831 0.854653 0.24724   0.113016
 C 0.867687 0.738293 0.328417   0.110024
 C 0.362449 0.736914 0.330599   0.113107
 C 0.927894 0.670306 0.266105   -0.166301
 C 0.426339 0.670174 0.267958   -0.165529
 N 0.892106 0.328846 0.182382   -0.290165
 N 0.383727 0.327762 0.177872   -0.290588
 N 0.615854 0.172184 0.67905   -0.29164
 N 0.110213 0.171076 0.682469   -0.2943
 N 0.616367 0.672029 0.820735   -0.291008
 N 0.110787 0.671486 0.81715   -0.295988
 N 0.893427 0.829048 0.317776   -0.289273
 N 0.385872 0.828101 0.321465   -0.28987
 O 0.652551 0.160081 0.449666   -0.543474
 O 0.154658 0.15613 0.452536   -0.543581
 O 0.599645 0.042773 0.351566   -0.567112
 O 0.089311 0.039872 0.356055   -0.569693
 O 0.844968 0.343569 0.952832   -0.543691
 O 0.340266 0.339658 0.949546   -0.542924
 O 0.911343 0.459907 0.855507   -0.563707
 O 0.407665 0.457475 0.854421   -0.567551
 O 0.845473 0.843954 0.547445   -0.544297
 O 0.34088 0.839699 0.550712   -0.543953
 O 0.910835 0.960346 0.64373   -0.56459
 O 0.407529 0.957362 0.644916   -0.568117
 O 0.659403 0.660182 0.050463   -0.542705
 O 0.155448 0.656417 0.046904   -0.542509
 O 0.599766 0.54287 0.14828   -0.566008
 O 0.089092 0.540099 0.144307   -0.568235
