#{'_ref': 'TBD', '_srcid': 'CAKYAQ_clean', 'submitters': [{'name': 'Dalar Nazarian Jeff Camp and David Sholl', 'email': 'dalar@gatech.edu jcamp6@gatech.edu'}], '_method': 'VASP DFT with PBE;DDEC'}
data_Al3P3O13
_symmetry_space_group_name_H-M   'P 1'
_cell_length_a   9.02050022
_cell_length_b   9.02600000
_cell_length_c   19.51700000
_cell_angle_alpha   89.99899704
_cell_angle_beta   89.99700198
_cell_angle_gamma   68.78200295
_symmetry_Int_Tables_number   1
_chemical_formula_structural   Al3P3O13
_chemical_formula_sum   'Al12 P12 O52'
_cell_volume   1481.3335091
_cell_formula_units_Z   4
loop_
 _symmetry_equiv_pos_site_id
 _symmetry_equiv_pos_as_xyz
  1  'x, y, z'
loop_
 _atom_site_label
 _atom_site_fract_x
 _atom_site_fract_y
 _atom_site_fract_z
 _atom_site_charge
 Al 0.30306 0.980318 0.326453   1.914549
 Al 0.166924 0.856396 0.082826   2.045265
 Al 0.205156 0.50124 0.317615   2.029556
 Al 0.196766 0.519406 0.82648   1.914139
 Al 0.333122 0.643466 0.582832   2.032214
 Al 0.294736 0.99842 0.817617   2.030447
 Al 0.696978 0.019446 0.676331   1.915114
 Al 0.832958 0.14339 0.919954   2.032139
 Al 0.794888 0.498486 0.685171   2.029576
 Al 0.803108 0.480354 0.176295   1.914697
 Al 0.666908 0.356314 0.419949   2.032262
 Al 0.705222 0.001268 0.18518   2.030006
 P 0.369926 0.666616 0.419675   2.124827
 P 0.5125 0.19207 0.310461   2.117558
 P 0.491366 0.795708 0.159266   1.914677
 P 0.129842 0.833074 0.919688   2.095407
 P 0.987372 0.3076 0.81044   2.117537
 P 0.008724 0.704136 0.659328   1.915843
 P 0.63013 0.333148 0.583106   2.127111
 P 0.487538 0.80766 0.692322   2.117823
 P 0.508504 0.20404 0.843523   1.917906
 P 0.870018 0.166642 0.083093   2.126906
 P 0.01254 0.692138 0.192342   2.115593
 P 0.991324 0.29566 0.343469   1.917156
 O 0.268416 0.926824 0.241616   -0.583482
 O 0.343548 0.827356 0.386122   -0.989647
 O 0.41634 0.781082 0.233062   -0.397095
 O 0.458104 0.054542 0.330721   -1.02615
 O 0.62245 0.632546 0.15238   -0.951163
 O 0.257162 0.589606 0.388876   -1.049441
 O 0.630258 0.141014 0.250312   -1.01888
 O 0.554176 0.931968 0.158662   -0.9903
 O 0.36852 0.338952 0.287907   -1.060646
 O 0.366396 0.824202 0.103282   -0.946106
 O 0.54493 0.556844 0.408446   -1.05521
 O 0.333078 0.69481 0.496324   -1.030451
 O 0.59533 0.23117 0.372869   -1.03922
 O 0.231598 0.572966 0.741676   -0.583637
 O 0.156212 0.672252 0.886211   -0.977937
 O 0.083746 0.718782 0.733117   -0.397876
 O 0.041694 0.445188 0.830686   -1.025116
 O 0.877678 0.867304 0.652429   -0.949873
 O 0.242632 0.909972 0.888821   -1.037575
 O 0.869692 0.35858 0.75027   -1.018712
 O 0.945956 0.56786 0.658749   -0.988998
 O 0.131396 0.16073 0.787907   -1.061505
 O 0.13369 0.67562 0.603338   -0.943585
 O 0.954854 0.94284 0.90845   -1.041962
 O 0.166718 0.805042 0.0   -1.041774
 O 0.904528 0.268528 0.872849   -1.038007
 O 0.731492 0.072916 0.761188   -0.585625
 O 0.656484 0.172412 0.616661   -0.990626
 O 0.583504 0.218614 0.769714   -0.396289
 O 0.542006 0.945134 0.67206   -1.025408
 O 0.377386 0.367182 0.850393   -0.950625
 O 0.742938 0.410122 0.613891   -1.049954
 O 0.369784 0.858732 0.752471   -1.020265
 O 0.445734 0.067758 0.844164   -0.989969
 O 0.63147 0.660728 0.714876   -1.062101
 O 0.633472 0.175644 0.899501   -0.944326
 O 0.45514 0.442954 0.594341   -1.056923
 O 0.666946 0.304952 0.506454   -1.028974
 O 0.40466 0.768644 0.629908   -1.03751
 O 0.768418 0.42681 0.261121   -0.58466
 O 0.843598 0.327436 0.116604   -0.99105
 O 0.91633 0.28105 0.269669   -0.395442
 O 0.95813 0.554636 0.172053   -1.026191
 O 0.122396 0.132506 0.350356   -0.951315
 O 0.757304 0.089618 0.113935   -1.050233
 O 0.13029 0.64101 0.252478   -1.019911
 O 0.054074 0.431948 0.344085   -0.990198
 O 0.868566 0.839004 0.214929   -1.062035
 O 0.866342 0.324138 0.399447   -0.946368
 O 0.045022 0.056938 0.094322   -1.058384
 O 0.833128 0.194746 0.006452   -1.031719
 O 0.095348 0.731292 0.129942   -1.03786
