#{'_ref': 'TBD', '_srcid': 'CAKYAQ_clean', 'submitters': [{'name': 'Dalar Nazarian Jeff Camp and David Sholl', 'email': 'dalar@gatech.edu jcamp6@gatech.edu'}], '_method': 'VASP DFT with PBE;DDEC'}
data_Al3P3O13
_symmetry_space_group_name_H-M   'P 1'
_cell_length_a   9.01550002
_cell_length_b   9.01750001
_cell_length_c   19.52200000
_cell_angle_alpha   90.00599803
_cell_angle_beta   90.00399745
_cell_angle_gamma   111.28499713
_symmetry_Int_Tables_number   1
_chemical_formula_structural   Al3P3O13
_chemical_formula_sum   'Al12 P12 O52'
_cell_volume   1478.82437381
_cell_formula_units_Z   4
loop_
 _symmetry_equiv_pos_site_id
 _symmetry_equiv_pos_as_xyz
  1  'x, y, z'
loop_
 _atom_site_label
 _atom_site_fract_x
 _atom_site_fract_y
 _atom_site_fract_z
 _atom_site_charge
 Al 0.017406 0.305616 0.326511   1.914588
 Al 0.141916 0.168628 0.082354   2.043248
 Al 0.496648 0.206438 0.317589   2.028798
 Al 0.48256 0.194568 0.826532   1.915331
 Al 0.357994 0.33154 0.582362   2.031174
 Al 0.00333 0.293804 0.817593   2.028904
 Al 0.982562 0.69456 0.676246   1.914829
 Al 0.858044 0.831588 0.920401   2.030463
 Al 0.50328 0.793754 0.685181   2.027798
 Al 0.517392 0.805624 0.176229   1.91486
 Al 0.641976 0.668648 0.420403   2.031518
 Al 0.996574 0.70642 0.185159   2.028468
 P 0.331012 0.371516 0.420277   2.126645
 P 0.80549 0.51354 0.310011   2.115356
 P 0.201166 0.492848 0.159104   1.915306
 P 0.168962 0.128698 0.92028   2.096458
 P 0.694438 0.986678 0.810024   2.113811
 P 0.298726 0.007352 0.659111   1.915814
 P 0.668932 0.62866 0.582492   2.123822
 P 0.194434 0.486638 0.692752   2.114692
 P 0.798822 0.507384 0.843647   1.916868
 P 0.830958 0.871508 0.082471   2.124564
 P 0.305458 0.013528 0.192739   2.114157
 P 0.701266 0.992846 0.34365   1.916509
 O 0.07 0.270206 0.241632   -0.58428
 O 0.170592 0.344848 0.386145   -0.990554
 O 0.216198 0.418146 0.232912   -0.39718
 O 0.944826 0.461996 0.330696   -1.023716
 O 0.363758 0.625486 0.152388   -0.953223
 O 0.410754 0.261906 0.388698   -1.053482
 O 0.85581 0.631756 0.249997   -1.017143
 O 0.063396 0.55373 0.158338   -0.988011
 O 0.660442 0.367658 0.287016   -1.059293
 O 0.17444 0.368106 0.103104   -0.945859
 O 0.439906 0.547812 0.411016   -1.054469
 O 0.300816 0.330444 0.49653   -1.027462
 O 0.763468 0.5947 0.372201   -1.041655
 O 0.429968 0.229984 0.741653   -0.584424
 O 0.329404 0.155412 0.886169   -0.978999
 O 0.283702 0.082106 0.732916   -0.397963
 O 0.555016 0.038078 0.830722   -1.022407
 O 0.136144 0.874684 0.652387   -0.951761
 O 0.089178 0.238248 0.888686   -1.04146
 O 0.644164 0.86843 0.750001   -1.016843
 O 0.43651 0.946478 0.658365   -0.986348
 O 0.839376 0.132662 0.787044   -1.059724
 O 0.325452 0.132058 0.603108   -0.943698
 O 0.060104 0.952376 0.911018   -1.041446
 O 0.199104 0.1698 0.0   -1.037106
 O 0.736594 0.905572 0.872195   -1.039596
 O 0.929996 0.730002 0.761125   -0.585813
 O 0.829362 0.655358 0.616619   -0.990203
 O 0.783758 0.582094 0.769844   -0.396314
 O 0.055056 0.538114 0.672055   -1.022375
 O 0.636282 0.374662 0.850359   -0.952746
 O 0.58914 0.738216 0.61408   -1.052632
 O 0.14413 0.3684 0.75276   -1.018571
 O 0.936676 0.44662 0.844406   -0.987617
 O 0.339426 0.632576 0.715751   -1.059948
 O 0.825482 0.632098 0.899655   -0.943301
 O 0.560076 0.45235 0.591741   -1.053818
 O 0.699116 0.669766 0.506241   -1.025006
 O 0.236532 0.405506 0.630571   -1.039563
 O 0.570028 0.770212 0.261101   -0.584829
 O 0.670524 0.844848 0.116578   -0.990585
 O 0.716274 0.918104 0.269841   -0.395826
 O 0.444816 0.962024 0.172054   -1.02369
 O 0.863884 0.125458 0.350379   -0.95286
 O 0.910654 0.761882 0.114066   -1.052981
 O 0.355774 0.131754 0.252767   -1.018564
 O 0.563534 0.053796 0.344401   -0.988122
 O 0.160436 0.86763 0.215715   -1.060834
 O 0.674494 0.86812 0.399647   -0.945805
 O 0.93987 0.047808 0.091746   -1.056199
 O 0.80082 0.830436 0.006226   -1.027544
 O 0.2634 0.09467 0.130555   -1.040134
