#{'_ref': 'TBD', '_srcid': 'CAKYAQ_clean', 'submitters': [{'name': 'Dalar Nazarian Jeff Camp and David Sholl', 'email': 'dalar@gatech.edu jcamp6@gatech.edu'}], '_method': 'VASP DFT with PBE;DDEC'}
data_CdH8C12(NO2)2
_symmetry_space_group_name_H-M   'P 1'
_cell_length_a   13.07000003
_cell_length_b   15.24799960
_cell_length_c   19.14200000
_cell_angle_alpha   89.98400017
_cell_angle_beta   89.99600201
_cell_angle_gamma   89.96400114
_symmetry_Int_Tables_number   1
_chemical_formula_structural   CdH8C12(NO2)2
_chemical_formula_sum   'Cd8 H64 C96 N16 O32'
_cell_volume   3814.83421238
_cell_formula_units_Z   8
loop_
 _symmetry_equiv_pos_site_id
 _symmetry_equiv_pos_as_xyz
  1  'x, y, z'
loop_
 _atom_site_label
 _atom_site_fract_x
 _atom_site_fract_y
 _atom_site_fract_z
 _atom_site_charge
 Cd 0.328506 0.227399 0.831365   0.914722
 Cd 0.171052 0.771994 0.331249   0.91614
 Cd 0.671469 0.727283 0.66857   0.91444
 Cd 0.828929 0.272243 0.168707   0.908869
 Cd 0.671463 0.772624 0.168611   0.91827
 Cd 0.828921 0.228026 0.66873   0.914058
 Cd 0.328502 0.272737 0.331401   0.908728
 Cd 0.171046 0.727779 0.831272   0.912961
 H 0.509012 0.278048 0.731087   0.103402
 H 0.616097 0.406494 0.692063   0.12817
 H 0.414962 0.574881 0.81011   0.146429
 H 0.313775 0.441113 0.842682   0.108968
 H 0.467452 0.090922 0.916998   0.090978
 H 0.602183 0.088905 0.012013   0.141555
 H 0.512991 0.352269 0.064366   0.141294
 H 0.384544 0.345587 0.965726   0.09951
 H 0.0 0.721885 0.231186   0.101401
 H 0.882799 0.593804 0.192345   0.128023
 H 0.083431 0.424718 0.310191   0.145734
 H 0.185253 0.558177 0.342657   0.108083
 H 0.031788 0.90874 0.416684   0.090282
 H 0.898024 0.910841 0.512329   0.142706
 H 0.0 0.647786 0.564915   0.141266
 H 0.115857 0.654416 0.465711   0.098175
 H 0.491059 0.778005 0.768952   0.103302
 H 0.383987 0.906535 0.808015   0.128131
 H 0.585067 0.074798 0.689928   0.146579
 H 0.686192 0.940922 0.657289   0.109027
 H 0.532836 0.590801 0.58297   0.090744
 H 0.398116 0.588742 0.487951   0.140926
 H 0.487001 0.852059 0.435379   0.141027
 H 0.615443 0.845408 0.53404   0.099825
 H 0.009405 0.221927 0.268862   0.103109
 H 0.117129 0.093709 0.307745   0.122384
 H 0.916601 0.924911 0.189826   0.111448
 H 0.814822 0.058525 0.157303   0.113675
 H 0.968261 0.408995 0.083269   0.088009
 H 0.101969 0.411013 0.987604   0.138552
 H 0.011695 0.148072 0.935069   0.140779
 H 0.884181 0.154799 0.034278   0.100999
 H 0.490938 0.721976 0.268874   0.103676
 H 0.383858 0.593529 0.307899   0.12824
 H 0.58501 0.425142 0.189865   0.146473
 H 0.686191 0.558913 0.15729   0.109135
 H 0.532525 0.909108 0.082969   0.087899
 H 0.397798 0.911123 0.987951   0.138699
 H 0.487002 0.647761 0.935599   0.140971
 H 0.615448 0.654448 0.034239   0.099645
 H 0.009429 0.278136 0.768795   0.102837
 H 0.117168 0.406216 0.807635   0.127558
 H 0.916544 0.575305 0.689788   0.146438
 H 0.814718 0.441849 0.657321   0.109293
 H 0.968204 0.091288 0.583305   0.090964
 H 0.101966 0.089183 0.487659   0.141342
 H 0.011663 0.352231 0.435061   0.141284
 H 0.884121 0.345604 0.534267   0.100322
 H 0.508912 0.222014 0.231013   0.103702
 H 0.615982 0.093482 0.191955   0.123015
 H 0.414902 0.925226 0.310049   0.112382
 H 0.313778 0.059104 0.342683   0.113297
 H 0.467167 0.409217 0.416983   0.091052
 H 0.601896 0.411274 0.511995   0.141028
 H 0.512958 0.147978 0.564603   0.141088
 H 0.384511 0.154632 0.465944   0.100369
 H 0.0 0.778096 0.731113   0.100813
 H 0.882851 0.906313 0.69223   0.127818
 H 0.08337 0.075111 0.810156   0.146378
 H 0.185156 0.941499 0.842674   0.10801
 H 0.03173 0.591031 0.916715   0.090348
 H 0.898012 0.589013 0.012374   0.142723
 H 0.0 0.851964 0.064901   0.141269
 H 0.115785 0.845236 0.965698   0.098162
 C 0.49132 0.344808 0.747387   0.124338
 C 0.550487 0.415705 0.726344   -0.166066
 C 0.52442 0.49999 0.749047   0.018465
 C 0.438381 0.51017 0.791863   -0.161973
 C 0.382037 0.436134 0.810227   0.126509
 C 0.585883 0.577727 0.724563   0.593604
 C 0.481181 0.147519 0.950475   0.129984
 C 0.554291 0.146304 0.003133   -0.168673
 C 0.568293 0.22125 0.044145   0.024185
 C 0.505156 0.293791 0.032198   -0.157295
 C 0.434482 0.290362 0.977891   0.12547
 C 0.655346 0.224747 0.095667   0.5946
 C 0.007928 0.655063 0.247522   0.125525
 C 0.948413 0.584365 0.226578   -0.163743
 C 0.974144 0.499983 0.249266   0.017895
 C 0.060234 0.489514 0.291971   -0.161238
 C 0.116939 0.563365 0.310265   0.126412
 C 0.912414 0.422437 0.224685   0.593439
 C 0.018494 0.852216 0.450352   0.134865
 C 0.945963 0.853492 0.50337   -0.170836
 C 0.932557 0.778646 0.544634   0.025286
 C 0.0 0.706186 0.532585   -0.157959
 C 0.065831 0.709545 0.477937   0.125504
 C 0.845926 0.774988 0.596479   0.594374
 C 0.508744 0.844759 0.752657   0.124364
 C 0.449564 0.915695 0.773703   -0.166248
 C 0.475646 0.999969 0.751012   0.018385
 C 0.561638 0.010093 0.708155   -0.16191
 C 0.617974 0.936005 0.689787   0.126805
 C 0.41411 0.07774 0.775464   0.59396
 C 0.519031 0.647387 0.549453   0.129775
 C 0.44593 0.646143 0.49679   -0.16845
 C 0.431822 0.721079 0.455729   0.02384
 C 0.494904 0.793597 0.467595   -0.156172
 C 0.56556 0.790196 0.521923   0.124622
 C 0.34475 0.724624 0.404217   0.594099
 C 0.992018 0.155133 0.252532   0.125895
 C 0.051563 0.08437 0.273469   -0.159689
 C 0.025814 3.00000000024e-05 0.250793   0.027077
 C 0.939793 0.0 0.208028   -0.1548
 C 0.88308 0.063603 0.189748   0.135928
 C 0.087605 0.922419 0.275359   0.593386
 C 0.981538 0.352473 0.049605   0.135743
 C 0.054052 0.353715 0.0   -0.170803
 C 0.067439 0.27886 0.95533   0.020374
 C 0.004284 0.206463 0.967392   -0.157481
 C 0.934203 0.209878 0.022039   0.130712
 C 0.154022 0.275096 0.903447   0.594539
 C 0.508631 0.655216 0.252574   0.123952
 C 0.449473 0.584317 0.273623   -0.16571
 C 0.475541 0.500032 0.250921   0.01783
 C 0.561588 0.489853 0.208112   -0.1615
 C 0.617923 0.563891 0.18974   0.12645
 C 0.41409 0.422292 0.275414   0.593798
 C 0.518797 0.852511 0.049492   0.136094
 C 0.445694 0.853726 0.0   -0.170699
 C 0.431691 0.778776 0.955821   0.021524
 C 0.494836 0.70624 0.967766   -0.157818
 C 0.565504 0.709669 0.022077   0.13151
 C 0.344638 0.775273 0.904299   0.593989
 C 0.992044 0.344958 0.752452   0.124403
 C 0.051548 0.415656 0.773408   -0.165543
 C 0.025832 0.500037 0.75071   0.017489
 C 0.939732 0.51051 0.708015   -0.161135
 C 0.883037 0.436658 0.689707   0.126531
 C 0.087551 0.577581 0.775304   0.59227
 C 0.981496 0.14781 0.549636   0.128764
 C 0.054022 0.146531 0.496615   -0.168897
 C 0.067426 0.221375 0.455349   0.023557
 C 0.004257 0.293833 0.467393   -0.156989
 C 0.934152 0.290477 0.522045   0.125406
 C 0.154049 0.225028 0.403498   0.595144
 C 0.491217 0.155259 0.247301   0.125949
 C 0.550412 0.084323 0.226273   -0.160529
 C 0.524318 4.89999999971e-05 0.248957   0.028417
 C 0.438337 0.0 0.291826   -0.156715
 C 0.381987 0.064018 0.310175   0.136443
 C 0.585869 0.922278 0.224524   0.594267
 C 0.480993 0.352623 0.450487   0.129659
 C 0.55405 0.353887 0.503177   -0.167862
 C 0.568174 0.278941 0.544223   0.023328
 C 0.505046 0.206444 0.532392   -0.156904
 C 0.434436 0.209827 0.478036   0.124388
 C 0.65521 0.275414 0.595765   0.594542
 C 0.007956 0.844889 0.747449   0.12607
 C 0.948422 0.915654 0.726502   -0.163638
 C 0.974156 0.999991 0.749189   0.017784
 C 0.060186 0.010347 0.791945   -0.161913
 C 0.116891 0.93642 0.810235   0.126818
 C 0.912371 0.077603 0.724617   0.593173
 C 0.018434 0.64756 0.950369   0.135154
 C 0.945935 0.646309 0.003412   -0.170958
 C 0.932525 0.721172 0.044641   0.026024
 C 0.0 0.793566 0.032587   -0.157326
 C 0.065755 0.79016 0.977931   0.124148
 C 0.845957 0.72492 0.096536   0.593934
 N 0.408108 0.35459 0.788784   -0.33822
 N 0.423659 0.219102 0.936688   -0.324513
 N 0.091205 0.644995 0.288811   -0.341646
 N 0.076055 0.780692 0.436507   -0.325728
 N 0.591902 0.854467 0.711207   -0.337941
 N 0.576471 0.718961 0.563189   -0.324028
 N 0.90881 0.145198 0.211178   -0.33816
 N 0.92398 0.281006 0.063469   -0.325206
 N 0.591852 0.645434 0.211185   -0.338596
 N 0.576326 0.780931 0.063278   -0.327261
 N 0.908756 0.35503 0.711174   -0.337955
 N 0.923929 0.219331 0.563476   -0.322852
 N 0.408075 0.145557 0.288767   -0.338492
 N 0.423485 0.281076 0.436791   -0.323219
 N 0.091173 0.854827 0.788794   -0.341479
 N 0.076008 0.71902 0.936517   -0.325817
 O 0.568987 0.652009 0.753008   -0.584845
 O 0.649071 0.566535 0.674953   -0.562565
 O 0.661767 0.292252 0.135434   -0.565591
 O 0.719884 0.163049 0.094982   -0.582455
 O 0.929141 0.348041 0.253149   -0.585182
 O 0.849419 0.433744 0.175032   -0.562007
 O 0.839624 0.707277 0.636034   -0.565441
 O 0.781436 0.836743 0.596176   -0.58105
 O 0.430991 0.15203 0.747014   -0.584758
 O 0.350928 0.066569 0.825069   -0.56317
 O 0.338234 0.792147 0.364443   -0.5664
 O 0.28023 0.662974 0.404944   -0.581462
 O 0.070846 0.848034 0.246932   -0.581213
 O 0.150596 0.933655 0.324999   -0.558124
 O 0.16035 0.20734 0.863971   -0.565462
 O 0.218468 0.336819 0.903638   -0.580227
 O 0.430987 0.34801 0.246969   -0.584694
 O 0.350902 0.433483 0.325024   -0.562607
 O 0.338209 0.70776 0.864542   -0.564965
 O 0.280096 0.836968 0.904984   -0.580076
 O 0.070835 0.651977 0.746835   -0.582646
 O 0.150554 0.56627 0.824952   -0.561508
 O 0.160353 0.292742 0.363947   -0.566006
 O 0.218536 0.163271 0.403796   -0.582103
 O 0.568977 0.847987 0.252969   -0.583344
 O 0.649042 0.933443 0.174913   -0.559101
 O 0.661745 0.207879 0.635524   -0.565826
 O 0.719761 0.337039 0.59501   -0.581384
 O 0.929123 0.151985 0.753051   -0.584647
 O 0.849371 0.066363 0.674983   -0.56246
 O 0.839619 0.792676 0.136011   -0.565793
 O 0.7815 0.663205 0.096327   -0.581986
