#{'_ref': 'TBD', '_srcid': 'CAKYAQ_clean', 'submitters': [{'name': 'Dalar Nazarian Jeff Camp and David Sholl', 'email': 'dalar@gatech.edu jcamp6@gatech.edu'}], '_method': 'VASP DFT with PBE;DDEC'}
data_Ga3P3O13
_symmetry_space_group_name_H-M   'P 1'
_cell_length_a   9.07550007
_cell_length_b   9.13950031
_cell_length_c   18.98900000
_cell_angle_alpha   89.99800018
_cell_angle_beta   89.99299862
_cell_angle_gamma   70.22599873
_symmetry_Int_Tables_number   1
_chemical_formula_structural   Ga3P3O13
_chemical_formula_sum   'Ga12 P12 O52'
_cell_volume   1482.17880115
_cell_formula_units_Z   4
loop_
 _symmetry_equiv_pos_site_id
 _symmetry_equiv_pos_as_xyz
  1  'x, y, z'
loop_
 _atom_site_label
 _atom_site_fract_x
 _atom_site_fract_y
 _atom_site_fract_z
 _atom_site_charge
 Ga 0.144876 0.348438 0.410415   1.741798
 Ga 0.03688 0.210924 0.183449   1.710106
 Ga 0.518154 0.299674 0.177224   1.748199
 Ga 0.36143 0.151658 0.910339   1.751001
 Ga 0.46947 0.289066 0.683494   1.709771
 Ga 0.988166 0.200082 0.676533   1.748612
 Ga 0.861408 0.651516 0.589547   1.740952
 Ga 0.969452 0.7889 0.816463   1.710833
 Ga 0.488088 0.700284 0.822771   1.748469
 Ga 0.644844 0.848312 0.089581   1.738457
 Ga 0.53683 0.711032 0.316528   1.709629
 Ga 0.017978 0.800034 0.323393   1.747398
 P 0.351264 0.122086 0.082755   1.881096
 P 0.322984 0.50039 0.300321   1.927234
 P 0.225118 0.014114 0.351716   1.770189
 P 0.155358 0.378356 0.582697   1.910669
 P 0.183256 0.999818 0.799999   1.924513
 P 0.280698 0.485472 0.851013   1.778096
 P 0.655022 0.87785 0.91718   1.913025
 P 0.683308 0.49973 0.699671   1.927235
 P 0.781064 0.985934 0.648252   1.778665
 P 0.85123 0.622076 0.417184   1.911311
 P 0.822894 0.000124 0.200016   1.922654
 P 0.725582 0.514538 0.148972   1.777202
 O 0.080628 0.96374 0.354395   -0.873063
 O 0.211488 0.13212 0.410438   -0.822912
 O 0.32981 0.107612 0.0   -0.916774
 O 0.287358 0.424448 0.367458   -0.911212
 O 0.189828 0.187908 0.117185   -0.885155
 O 0.439054 0.957376 0.114482   -0.896488
 O 0.241698 0.096026 0.276748   -0.393777
 O 0.474864 0.537406 0.314888   -0.926408
 O 0.380022 0.88016 0.355223   -0.867429
 O 0.351198 0.38587 0.23744   -0.904759
 O 0.185404 0.650084 0.279844   -0.95136
 O 0.44954 0.23067 0.095946   -0.91423
 O 0.101396 0.24339 0.274007   -0.509944
 O 0.425354 0.535584 0.852118   -0.882051
 O 0.29469 0.367974 0.910435   -0.829888
 O 0.176942 0.39276 0.503399   -0.913635
 O 0.21882 0.075818 0.867379   -0.912834
 O 0.316748 0.312494 0.617136   -0.895601
 O 0.067138 0.542674 0.614427   -0.907701
 O 0.264498 0.4041 0.776755   -0.395188
 O 0.031708 0.962356 0.814769   -0.928184
 O 0.125908 0.619482 0.855071   -0.870088
 O 0.154688 0.114016 0.737311   -0.904972
 O 0.321104 0.85067 0.778967   -0.949839
 O 0.057116 0.2698 0.595821   -0.926733
 O 0.404662 0.256624 0.774015   -0.506085
 O 0.92551 0.03638 0.645562   -0.878497
 O 0.793956 0.867782 0.589346   -0.827486
 O 0.676648 0.892256 0.996491   -0.914076
 O 0.718934 0.575504 0.632482   -0.912821
 O 0.816386 0.81202 0.882678   -0.897525
 O 0.56725 0.042602 0.885473   -0.913735
 O 0.766374 0.905576 0.722989   -0.394742
 O 0.531446 0.462672 0.685138   -0.927419
 O 0.626132 0.119856 0.64478   -0.870256
 O 0.655048 0.614472 0.762483   -0.90426
 O 0.820906 0.350098 0.720199   -0.950121
 O 0.556704 0.769282 0.904042   -0.92612
 O 0.9056 0.757276 0.725665   -0.508229
 O 0.58106 0.464228 0.147841   -0.881036
 O 0.711536 0.632014 0.089535   -0.823599
 O 0.829766 0.607472 0.496472   -0.91233
 O 0.787422 0.924262 0.132485   -0.910531
 O 0.689808 0.687958 0.382765   -0.896055
 O 0.939376 0.457796 0.385413   -0.909671
 O 0.741624 0.596004 0.223222   -0.393537
 O 0.97438 0.037688 0.185243   -0.927409
 O 0.880496 0.380678 0.144944   -0.868343
 O 0.851136 0.885842 0.262537   -0.902719
 O 0.684996 0.149198 0.221104   -0.947532
 O 0.949516 0.730678 0.404031   -0.92454
 O 0.60134 0.743386 0.225935   -0.508212
