#{'_ref': 'TBD', '_srcid': 'CAKYAQ_clean', 'submitters': [{'name': 'Dalar Nazarian Jeff Camp and David Sholl', 'email': 'dalar@gatech.edu jcamp6@gatech.edu'}], '_method': 'VASP DFT with PBE;DDEC'}
data_ZnH8C15S2NO4
_symmetry_space_group_name_H-M   'P 1'
_cell_length_a   13.95900020
_cell_length_b   14.28199976
_cell_length_c   14.29400000
_cell_angle_alpha   97.17600081
_cell_angle_beta   106.29800014
_cell_angle_gamma   106.78100161
_symmetry_Int_Tables_number   1
_chemical_formula_structural   ZnH8C15S2NO4
_chemical_formula_sum   'Zn4 H32 C60 S8 N4 O16'
_cell_volume   2552.08851644
_cell_formula_units_Z   4
loop_
 _symmetry_equiv_pos_site_id
 _symmetry_equiv_pos_as_xyz
  1  'x, y, z'
loop_
 _atom_site_label
 _atom_site_fract_x
 _atom_site_fract_y
 _atom_site_fract_z
 _atom_site_charge
 Zn 0.639558 0.337615 0.625704   0.885121
 Zn 0.861136 0.374869 0.662157   0.885872
 Zn 0.360452 0.662384 0.374281   0.885109
 Zn 0.138875 0.625131 0.337829   0.885912
 H 0.349116 0.493444 0.589866   0.137283
 H 0.51833 0.982855 0.583531   0.127515
 H 0.518854 0.475087 0.582002   0.09501
 H 0.529067 0.320806 0.275344   0.118756
 H 0.565508 0.336231 0.105659   0.130589
 H 0.279 0.209347 0.678772   0.138714
 H 0.550735 0.811984 0.593511   0.133358
 H 0.450525 0.201087 0.66221   0.112073
 H 0.152605 0.408634 0.505901   0.1375
 H 0.981098 0.415491 0.0145   0.12721
 H 0.982852 0.417046 0.523948   0.096519
 H 0.972328 0.72728 0.679387   0.118991
 H 0.93491 0.896218 0.662521   0.130211
 H 0.220115 0.322359 0.79049   0.139296
 H 0.949273 0.405935 0.185827   0.134318
 H 0.048649 0.339256 0.798357   0.112974
 H 0.650891 0.50655 0.410111   0.13742
 H 0.481681 0.017144 0.416456   0.127517
 H 0.481152 0.524907 0.417972   0.094911
 H 0.47094 0.67918 0.724638   0.118791
 H 0.434499 0.663755 0.894323   0.130663
 H 0.72102 0.790662 0.321234   0.138642
 H 0.449274 0.188015 0.406475   0.13329
 H 0.549492 0.79892 0.337791   0.112059
 H 0.847401 0.591357 0.494081   0.137454
 H 0.018912 0.584508 0.985485   0.127276
 H 0.017154 0.582946 0.476033   0.096531
 H 0.027681 0.272718 0.320602   0.118959
 H 0.0651 0.10378 0.337468   0.130216
 H 0.779896 0.677644 0.209498   0.139296
 H 0.050736 0.594062 0.814158   0.134243
 H 0.951364 0.66075 0.20163   0.112966
 C 0.694614 0.33677 0.342622   -0.216954
 C 0.703678 0.162521 0.626201   0.67796
 C 0.300091 0.35329 0.637025   0.128502
 C 0.707393 0.339765 0.448916   0.671054
 C 0.721472 0.894017 0.635417   -0.009685
 C 0.688761 0.055608 0.624192   -0.178157
 C 0.730217 0.351215 0.182193   0.014937
 C 0.367763 0.427273 0.6068   -0.202834
 C 0.596284 0.975103 0.603249   -0.051052
 C 0.462173 0.417471 0.601394   0.142546
 C 0.605341 0.330029 0.265118   -0.04641
 C 0.625174 0.338269 0.174681   -0.183772
 C 0.330043 0.270271 0.657489   -0.214774
 C 0.614291 0.883503 0.609244   -0.160716
 C 0.424833 0.264732 0.648246   0.139066
 C 0.806767 0.658352 0.664307   -0.214338
 C 0.795954 0.372818 0.836932   0.679009
 C 0.200332 0.362807 0.646356   0.128299
 C 0.794279 0.552023 0.662162   0.668496
 C 0.778555 0.363792 0.105536   -0.007454
 C 0.810762 0.374735 0.943603   -0.179866
 C 0.770224 0.817998 0.648399   0.015629
 C 0.133397 0.392428 0.572125   -0.203285
 C 0.903308 0.395753 0.023136   -0.050018
 C 0.038949 0.398058 0.581712   0.140948
 C 0.895848 0.736672 0.670251   -0.045837
 C 0.875473 0.826674 0.661169   -0.183957
 C 0.169674 0.343177 0.729413   -0.214618
 C 0.885613 0.390007 0.114948   -0.161815
 C 0.074901 0.352589 0.734719   0.13786
 C 0.305393 0.663221 0.657362   -0.216878
 C 0.296332 0.837478 0.373785   0.678002
 C 0.69994 0.646731 0.362997   0.128376
 C 0.292618 0.660238 0.55107   0.670574
 C 0.278537 0.105981 0.364566   -0.009573
 C 0.311249 0.94439 0.375792   -0.178105
 C 0.269792 0.648779 0.817791   0.014766
 C 0.632234 0.572711 0.393155   -0.203254
 C 0.403727 0.024896 0.396737   -0.051012
 C 0.537841 0.582529 0.398594   0.143029
 C 0.394668 0.669964 0.734866   -0.046283
 C 0.374834 0.66172 0.825302   -0.183964
 C 0.669957 0.729721 0.342481   -0.214494
 C 0.385719 0.116496 0.390742   -0.16068
 C 0.575187 0.735277 0.35176   0.139123
 C 0.193243 0.341646 0.335682   -0.214377
 C 0.204056 0.627178 0.163053   0.6789
 C 0.799658 0.637155 0.353609   0.128508
 C 0.205728 0.447974 0.337815   0.668512
 C 0.221455 0.636204 0.894448   -0.007311
 C 0.189248 0.625264 0.056383   -0.179894
 C 0.229785 0.182 0.351585   0.015418
 C 0.866624 0.607594 0.427871   -0.203337
 C 0.096702 0.604244 0.976849   -0.050417
 C 0.961053 0.601927 0.418267   0.140926
 C 0.10416 0.263325 0.329731   -0.045714
 C 0.124536 0.173324 0.338818   -0.183862
 C 0.830354 0.656854 0.270587   -0.214708
 C 0.114397 0.60999 0.885037   -0.161543
 C 0.925105 0.647401 0.265261   0.137808
 S 0.799187 0.018391 0.652253   0.087623
 S 0.803356 0.351393 0.30267   0.125248
 S 0.700581 0.346639 0.981951   0.087268
 S 0.697543 0.696989 0.649408   0.122705
 S 0.200823 0.981607 0.34773   0.087443
 S 0.196654 0.648607 0.697316   0.125326
 S 0.299428 0.653356 0.018034   0.087359
 S 0.302465 0.303007 0.350571   0.122828
 N 0.49082 0.337833 0.621779   -0.27265
 N 0.009653 0.37853 0.661428   -0.272218
 N 0.509188 0.662164 0.378203   -0.273018
 N 0.990359 0.621475 0.33856   -0.272082
 O 0.620809 0.187776 0.605043   -0.573528
 O 0.625877 0.332355 0.475375   -0.575267
 O 0.799379 0.22102 0.649355   -0.589866
 O 0.800708 0.352548 0.506643   -0.590832
 O 0.879025 0.394521 0.81141   -0.574836
 O 0.875862 0.526146 0.66953   -0.574715
 O 0.70041 0.349491 0.779023   -0.589659
 O 0.700888 0.493688 0.649978   -0.589328
 O 0.379201 0.812223 0.394943   -0.573532
 O 0.37413 0.667637 0.524608   -0.575131
 O 0.200631 0.778978 0.350627   -0.589912
 O 0.199302 0.647454 0.493343   -0.590577
 O 0.120985 0.605477 0.188575   -0.574741
 O 0.124149 0.473853 0.330459   -0.57488
 O 0.2996 0.650508 0.220962   -0.58958
 O 0.299121 0.50631 0.350007   -0.589313
