#{'_ref': 'TBD', '_srcid': 'CAKYAQ_clean', 'submitters': [{'name': 'Dalar Nazarian Jeff Camp and David Sholl', 'email': 'dalar@gatech.edu jcamp6@gatech.edu'}], '_method': 'VASP DFT with PBE;DDEC'}
data_AlH5C8O5
_symmetry_space_group_name_H-M   'P 1'
_cell_length_a   13.41699996
_cell_length_b   13.83099967
_cell_length_c   16.19700000
_cell_angle_alpha   90.00099836
_cell_angle_beta   90.05399905
_cell_angle_gamma   90.10599896
_symmetry_Int_Tables_number   1
_chemical_formula_structural   AlH5C8O5
_chemical_formula_sum   'Al8 H40 C64 O40'
_cell_volume   3005.67926613
_cell_formula_units_Z   8
loop_
 _symmetry_equiv_pos_site_id
 _symmetry_equiv_pos_as_xyz
  1  'x, y, z'
loop_
 _atom_site_label
 _atom_site_fract_x
 _atom_site_fract_y
 _atom_site_fract_z
 _atom_site_charge
 Al 0.999991 0.0 1.60000000022e-05   1.783525
 Al 0.500006 9.999999975e-07 0.999978   1.788181
 Al 0.750002 0.500021 0.499995   1.78628
 Al 0.250003 0.500015 0.500008   1.788474
 Al 0.75 5.0000000016e-06 1.00000000032e-05   1.787122
 Al 0.249993 0.999995 0.999984   1.787696
 Al 0.999966 0.500012 0.500067   1.784179
 Al 0.500044 0.500022 0.499937   1.788461
 H 0.625382 0.126148 0.015573   0.47292
 H 0.125385 0.126408 0.014608   0.475228
 H 0.784158 0.7032 0.317785   0.114993
 H 0.283893 0.703304 0.31813   0.104347
 H 0.784262 0.820267 0.198971   0.124705
 H 0.284276 0.820393 0.199301   0.112377
 H 0.465865 0.679427 0.300585   0.110221
 H 0.0 0.679348 0.300247   0.053933
 H 0.466126 0.796738 0.181863   0.113564
 H 0.0 0.796647 0.181534   0.060457
 H 0.624822 0.374264 0.516766   0.472271
 H 0.124771 0.372988 0.511973   0.476208
 H 0.465132 0.798081 0.815544   0.106475
 H 0.0 0.798129 0.815264   0.047128
 H 0.466251 0.680982 0.696711   0.115037
 H 0.0 0.681067 0.696417   0.06227
 H 0.783851 0.819416 0.802803   0.118967
 H 0.283791 0.819136 0.803179   0.107223
 H 0.784806 0.702129 0.684067   0.123626
 H 0.284968 0.701822 0.684477   0.110484
 H 0.874613 0.874064 0.983848   0.474119
 H 0.37463 0.873375 0.986355   0.474923
 H 0.715829 0.29677 0.682166   0.106628
 H 0.216135 0.296742 0.681903   0.107655
 H 0.715711 0.179706 0.800975   0.116413
 H 0.215762 0.179655 0.800738   0.115738
 H 0.034107 0.320644 0.699458   0.11072
 H 0.534358 0.320657 0.699742   0.110332
 H 0.033829 0.203341 0.818194   0.114468
 H 0.53384 0.203348 0.81844   0.115005
 H 0.875193 0.625895 0.483638   0.472826
 H 0.375228 0.627024 0.487956   0.475432
 H 0.034921 0.201978 0.184478   0.1069
 H 0.534944 0.201886 0.184735   0.107168
 H 0.033778 0.319079 0.303298   0.115424
 H 0.533641 0.318943 0.303594   0.116821
 H 0.716203 0.180586 0.197207   0.110799
 H 0.216166 0.180928 0.196836   0.110271
 H 0.715227 0.297874 0.315948   0.114808
 H 0.21501 0.298242 0.31553   0.113572
 C 0.624581 0.616159 0.387384   0.738833
 C 0.124254 0.616236 0.387448   0.742192
 C 0.624919 0.685068 0.31637   -0.110819
 C 0.124683 0.6851 0.316385   -0.146633
 C 0.714977 0.724312 0.287687   -0.071893
 C 0.214803 0.724387 0.287869   -0.066523
 C 0.625602 0.883919 0.11256   0.725851
 C 0.125741 0.883939 0.112566   0.729935
 C 0.625221 0.815027 0.183765   -0.096777
 C 0.125279 0.815046 0.183766   -0.136483
 C 0.715155 0.788851 0.22187   -0.081786
 C 0.21512 0.788924 0.222047   -0.073355
 C 0.535015 0.71115 0.278102   -0.072452
 C 0.034881 0.711119 0.277929   0.005266
 C 0.535149 0.775731 0.212301   -0.076102
 C 0.03515 0.775692 0.212124   0.00094
 C 0.62405 0.8838 0.887431   0.73855
 C 0.123885 0.883745 0.887455   0.741137
 C 0.624499 0.814956 0.816371   -0.108682
 C 0.1244 0.814866 0.816411   -0.145218
 C 0.534659 0.776457 0.78638   -0.071028
 C 0.034609 0.776446 0.786246   0.012613
 C 0.626042 0.616189 0.61252   0.724534
 C 0.126222 0.616089 0.612561   0.728776
 C 0.625575 0.685048 0.683744   -0.095417
 C 0.125706 0.684937 0.683787   -0.134476
 C 0.535171 0.711921 0.720558   -0.077692
 C 0.035226 0.71191 0.720425   -0.003343
 C 0.714871 0.788182 0.779383   -0.075862
 C 0.214848 0.787982 0.779606   -0.069814
 C 0.715427 0.723618 0.713578   -0.080819
 C 0.215512 0.723402 0.713812   -0.072429
 C 0.875405 0.383867 0.612613   0.739381
 C 0.375771 0.383794 0.612564   0.738424
 C 0.875061 0.314957 0.683628   -0.110857
 C 0.375348 0.314925 0.683623   -0.109028
 C 0.785004 0.275685 0.712285   -0.067753
 C 0.28523 0.275648 0.712152   -0.06938
 C 0.87436 0.11612 0.887449   0.726275
 C 0.374303 0.116072 0.887433   0.725745
 C 0.874743 0.185003 0.816236   -0.096713
 C 0.374764 0.184971 0.816238   -0.096947
 C 0.784818 0.211147 0.778102   -0.077759
 C 0.284917 0.211109 0.777974   -0.07763
 C 0.964957 0.288902 0.721923   -0.071978
 C 0.465155 0.288893 0.722065   -0.072681
 C 0.964816 0.224324 0.787727   -0.076038
 C 0.464892 0.224314 0.787866   -0.075479
 C 0.876007 0.116226 0.112586   0.738344
 C 0.376068 0.116306 0.112541   0.737633
 C 0.875554 0.185073 0.183642   -0.107715
 C 0.375557 0.185177 0.183593   -0.107412
 C 0.965386 0.223589 0.213634   -0.070677
 C 0.465355 0.223581 0.213757   -0.07019
 C 0.873978 0.383856 0.387482   0.725447
 C 0.373768 0.383945 0.387449   0.724991
 C 0.874453 0.314988 0.316265   -0.095721
 C 0.374275 0.315101 0.31622   -0.095796
 C 0.964863 0.288127 0.279453   -0.077364
 C 0.46475 0.288115 0.279581   -0.077351
 C 0.785176 0.211833 0.220629   -0.072599
 C 0.285116 0.212073 0.220401   -0.072364
 C 0.784609 0.276399 0.286434   -0.075984
 C 0.284462 0.276652 0.286196   -0.076612
 O 0.625098 0.05845 0.999955   -1.089897
 O 0.125091 0.058414 0.999975   -1.093702
 O 0.541133 0.907966 0.083014   -0.644896
 O 0.041303 0.908055 0.083041   -0.630798
 O 0.539897 0.587642 0.413525   -0.647048
 O 0.039476 0.587844 0.413602   -0.636288
 O 0.710466 0.912074 0.086643   -0.642268
 O 0.210644 0.912028 0.086625   -0.641257
 O 0.708928 0.591718 0.417072   -0.650171
 O 0.20858 0.59178 0.41711   -0.647242
 O 0.624914 0.441567 0.499936   -1.088919
 O 0.124882 0.441697 0.500057   -1.095516
 O 0.710867 0.588381 0.586493   -0.64072
 O 0.21108 0.588358 0.586461   -0.640274
 O 0.708485 0.908532 0.916969   -0.650868
 O 0.208297 0.908509 0.916981   -0.64744
 O 0.541478 0.591828 0.583126   -0.646502
 O 0.041705 0.591658 0.583197   -0.6295
 O 0.539385 0.911948 0.913699   -0.647202
 O 0.039174 0.911873 0.913704   -0.634404
 O 0.874908 0.941568 0.0   -1.090664
 O 0.374912 0.941642 0.0   -1.09191
 O 0.958825 0.092059 0.91698   -0.645702
 O 0.458741 0.091975 0.916977   -0.642344
 O 0.960091 0.412383 0.58648   -0.647845
 O 0.46055 0.412187 0.586405   -0.648549
 O 0.789483 0.087993 0.91338   -0.641664
 O 0.289413 0.087958 0.913361   -0.642569
 O 0.791058 0.408306 0.58292   -0.648964
 O 0.291444 0.408257 0.58291   -0.648908
 O 0.875095 0.558458 0.500067   -1.090281
 O 0.375121 0.558337 0.499961   -1.092817
 O 0.789157 0.411676 0.413499   -0.639124
 O 0.28891 0.41167 0.413558   -0.642558
 O 0.791578 0.091487 0.083053   -0.649119
 O 0.291648 0.091548 0.083011   -0.650031
 O 0.95854 0.40821 0.416887   -0.647493
 O 0.458286 0.408379 0.416805   -0.641443
 O 0.960679 0.088078 0.086313   -0.648078
 O 0.460775 0.088185 0.086293   -0.646633
