#{'_ref': 'TBD', '_srcid': 'CAKYAQ_clean', 'submitters': [{'name': 'Dalar Nazarian Jeff Camp and David Sholl', 'email': 'dalar@gatech.edu jcamp6@gatech.edu'}], '_method': 'VASP DFT with PBE;DDEC'}
data_CuH4C6N5
_symmetry_space_group_name_H-M   'P 1'
_cell_length_a   5.71550004
_cell_length_b   10.61649995
_cell_length_c   16.19500000
_cell_angle_alpha   90.00099842
_cell_angle_beta   90.00699719
_cell_angle_gamma   92.90000015
_symmetry_Int_Tables_number   1
_chemical_formula_structural   CuH4C6N5
_chemical_formula_sum   'Cu4 H16 C24 N20'
_cell_volume   981.431540065
_cell_formula_units_Z   4
loop_
 _symmetry_equiv_pos_site_id
 _symmetry_equiv_pos_as_xyz
  1  'x, y, z'
loop_
 _atom_site_label
 _atom_site_fract_x
 _atom_site_fract_y
 _atom_site_fract_z
 _atom_site_charge
 Cu 0.751564 0.495178 0.430508   0.221367
 Cu 0.248058 0.003718 0.930489   0.22173
 Cu 0.247906 0.503974 0.569475   0.221975
 Cu 0.75151 0.995346 0.069514   0.221958
 H 0.410454 0.69648 0.428008   0.074182
 H 0.220686 0.829094 0.322417   0.13829
 H 0.738302 0.713728 0.147605   0.134383
 H 0.902914 0.582842 0.259309   0.087136
 H 0.589476 0.803396 0.927956   0.074333
 H 0.778944 0.670588 0.822413   0.138294
 H 0.261156 0.785828 0.6476   0.134428
 H 0.09673 0.916842 0.75925   0.087411
 H 0.58964 0.303272 0.571952   0.074203
 H 0.779548 0.170706 0.677559   0.137515
 H 0.26178 0.28589 0.85236   0.1342
 H 0.096968 0.416726 0.740649   0.087038
 H 0.410722 0.196858 0.071867   0.074488
 H 0.220918 0.3295 0.177456   0.137951
 H 0.738782 0.214318 0.352278   0.133656
 H 0.90354 0.08348 0.24057   0.087405
 C 0.47796 0.703078 0.36508   0.117513
 C 0.373482 0.77693 0.306435   -0.194759
 C 0.463692 0.78227 0.225619   0.06974
 C 0.660166 0.712494 0.208831   -0.185269
 C 0.753006 0.639914 0.270987   0.11539
 C 0.344358 0.851656 0.161813   0.289991
 C 0.521812 0.796712 0.865045   0.116293
 C 0.626148 0.722762 0.806427   -0.194308
 C 0.535918 0.7174 0.725611   0.069969
 C 0.33936 0.78712 0.708822   -0.184983
 C 0.24666 0.859794 0.770951   0.114718
 C 0.655214 0.647946 0.661831   0.289048
 C 0.522072 0.296598 0.634868   0.116313
 C 0.626642 0.222802 0.693514   -0.192927
 C 0.536424 0.217464 0.774321   0.069149
 C 0.33984 0.28714 0.791121   -0.184352
 C 0.246908 0.35968 0.728974   0.114612
 C 0.6557 0.148086 0.83812   0.289128
 C 0.478324 0.20358 0.134784   0.117489
 C 0.373814 0.277398 0.193419   -0.194635
 C 0.464028 0.2827 0.274236   0.069724
 C 0.660664 0.213052 0.291042   -0.183888
 C 0.753578 0.14052 0.228898   0.114523
 C 0.344556 0.351946 0.338041   0.288854
 N 0.664342 0.633252 0.348414   -0.251254
 N 0.435084 0.891514 0.088135   -0.266321
 N 0.25307 0.940108 0.047515   -0.0253
 N 0.062124 0.93049 0.096328   0.007683
 N 0.11624 0.876772 0.168304   -0.333088
 N 0.335476 0.86658 0.848368   -0.24967
 N 0.564584 0.608222 0.588111   -0.266322
 N 0.746578 0.559594 0.547526   -0.02562
 N 0.937452 0.569072 0.5964   0.007944
 N 0.883274 0.622734 0.668392   -0.332979
 N 0.335584 0.366338 0.651546   -0.250044
 N 0.564872 0.10827 0.911776   -0.266206
 N 0.746792 0.05958 0.952375   -0.025923
 N 0.937934 0.069356 0.903653   0.007595
 N 0.883822 0.122964 0.831641   -0.33268
 N 0.664792 0.133818 0.151475   -0.251281
 N 0.435028 0.391432 0.411833   -0.265379
 N 0.252984 0.43998 0.452426   -0.025891
 N 0.06217 0.430546 0.403526   0.008086
 N 0.116516 0.377158 0.331468   -0.332621
