#{'_ref': 'TBD', '_srcid': 'CAKYAQ_clean', 'submitters': [{'name': 'Dalar Nazarian Jeff Camp and David Sholl', 'email': 'dalar@gatech.edu jcamp6@gatech.edu'}], '_method': 'VASP DFT with PBE;DDEC'}
data_K2V5P4H4C2O17
_symmetry_space_group_name_H-M   'P 1'
_cell_length_a   10.85000000
_cell_length_b   14.44700002
_cell_length_c   15.85700039
_cell_angle_alpha   90.00000126
_cell_angle_beta   89.97600059
_cell_angle_gamma   90.00299824
_symmetry_Int_Tables_number   1
_chemical_formula_structural   K2V5P4H4C2O17
_chemical_formula_sum   'K8 V20 P16 H16 C8 O68'
_cell_volume   2485.5838004
_cell_formula_units_Z   4
loop_
 _symmetry_equiv_pos_site_id
 _symmetry_equiv_pos_as_xyz
  1  'x, y, z'
loop_
 _atom_site_label
 _atom_site_fract_x
 _atom_site_fract_y
 _atom_site_fract_z
 _atom_site_charge
 K 0.332389 0.48766 0.749993   0.9754
 K 0.0 0.487651 0.750011   0.936216
 K 0.33233 0.0 0.749966   0.978925
 K 0.0 0.0 0.750008   0.938813
 K 0.17255 0.512324 0.249915   0.974196
 K 0.672524 0.512314 0.249883   0.987801
 K 0.172545 0.987673 0.249896   0.973957
 K 0.672492 0.987701 0.249803   0.987776
 V 0.067143 0.467978 0.547177   1.027288
 V 0.567171 0.467958 0.54715   1.263966
 V 0.066984 0.032048 0.952759   1.035817
 V 0.566999 0.032012 0.95259   1.25979
 V 0.437921 0.53197 0.047227   1.127592
 V 0.0 0.531948 0.047246   1.25077
 V 0.438067 0.967915 0.452786   1.126276
 V 0.0 0.967916 0.452787   1.247447
 V 0.438071 0.532085 0.452803   1.127854
 V 0.0 0.532077 0.452793   1.25199
 V 0.437924 0.96807 0.047209   1.125731
 V 0.0 0.968096 0.047258   1.245152
 V 0.067019 0.467946 0.952757   1.027307
 V 0.567018 0.467969 0.952679   1.262354
 V 0.067152 0.032013 0.547177   1.035816
 V 0.567176 0.032029 0.547131   1.261339
 V 0.884019 0.750006 0.750041   2.109095
 V 0.383998 0.750017 0.750102   2.064139
 V 0.620937 0.249975 0.249983   2.11949
 V 0.121061 0.24999 0.250099   2.088789
 P 0.760651 0.644787 0.583483   1.747833
 P 0.260667 0.644794 0.583506   1.735599
 P 0.760593 0.855205 0.916587   1.750944
 P 0.260551 0.855233 0.916616   1.737719
 P 0.74407 0.35522 0.083284   1.73822
 P 0.244226 0.355212 0.083376   1.703932
 P 0.744689 0.144776 0.416374   1.74075
 P 0.244668 0.144782 0.41649   1.705283
 P 0.744653 0.355204 0.416413   1.740704
 P 0.244655 0.355218 0.416496   1.706059
 P 0.743916 0.144781 0.083148   1.737671
 P 0.244204 0.144789 0.083355   1.702992
 P 0.760612 0.644779 0.91659   1.747969
 P 0.260578 0.64478 0.916618   1.734755
 P 0.760649 0.855215 0.583479   1.750743
 P 0.260666 0.855207 0.583494   1.737753
 H 0.634069 0.749993 0.502103   0.270863
 H 0.134104 0.749991 0.502102   0.249075
 H 0.597555 0.749991 0.612062   0.248905
 H 0.097559 0.749993 0.612057   0.278728
 H 0.634129 0.74998 0.998107   0.271133
 H 0.134091 0.749989 0.998126   0.249206
 H 0.597498 0.749976 0.888189   0.24941
 H 0.09747 0.749986 0.88821   0.279055
 H 0.871358 0.250012 0.0   0.272128
 H 0.371301 0.250009 0.0   0.277007
 H 0.9068 0.249934 0.112463   0.256339
 H 0.407133 0.249993 0.112306   0.272173
 H 0.870747 0.249981 0.498111   0.275795
 H 0.370775 0.250004 0.498171   0.280372
 H 0.907878 0.250021 0.388234   0.256035
 H 0.407854 0.250017 0.388286   0.272189
 C 0.673455 0.749996 0.565932   -1.028423
 C 0.17347 0.749996 0.565937   -1.013276
 C 0.673448 0.749984 0.934238   -1.029144
 C 0.173418 0.749996 0.93426   -1.013719
 C 0.831339 0.249989 0.066036   -1.017701
 C 0.33151 0.250002 0.066005   -0.97799
 C 0.831738 0.249998 0.434174   -1.019424
 C 0.331736 0.250006 0.434243   -0.980564
 O 0.834001 0.655321 0.666125   -0.977708
 O 0.334016 0.655342 0.666147   -0.995262
 O 0.670737 0.56232 0.596167   -0.829075
 O 0.170744 0.562331 0.596182   -0.957927
 O 0.844293 0.629306 0.505912   -0.884493
 O 0.344317 0.629306 0.505942   -0.817527
 O 0.948226 0.437681 0.603752   -0.766213
 O 0.448261 0.437676 0.603743   -0.815591
 O 0.834026 0.844684 0.83394   -0.988221
 O 0.333943 0.844722 0.833949   -1.010788
 O 0.670589 0.937576 0.90381   -0.828704
 O 0.170548 0.937614 0.903874   -0.965042
 O 0.844152 0.870801 0.994135   -0.88418
 O 0.344163 0.870806 0.994144   -0.815973
 O 0.948142 0.062348 0.896203   -0.75985
 O 0.448041 0.062313 0.896152   -0.806744
 O 0.670116 0.344721 0.165732   -1.009687
 O 0.170498 0.344691 0.165909   -1.021066
 O 0.834038 0.437622 0.096182   -0.932728
 O 0.334166 0.437641 0.096183   -0.894169
 O 0.661064 0.37069 0.005409   -0.809913
 O 0.16099 0.37069 0.005631   -0.814939
 O 0.556839 0.562269 0.103738   -0.780085
 O 0.056798 0.562235 0.103752   -0.619448
 O 0.671654 0.155285 0.333584   -1.01153
 O 0.171515 0.155294 0.333762   -1.022221
 O 0.83465 0.062342 0.40381   -0.933028
 O 0.334618 0.062349 0.403843   -0.894248
 O 0.660723 0.129234 0.493752   -0.81131
 O 0.160814 0.129234 0.493932   -0.81428
 O 0.557008 0.937647 0.396226   -0.779906
 O 0.057031 0.937634 0.396236   -0.619375
 O 0.671553 0.344652 0.333665   -1.010893
 O 0.171494 0.344691 0.333773   -1.022336
 O 0.834599 0.437657 0.403817   -0.933429
 O 0.334601 0.437661 0.403847   -0.894471
 O 0.660755 0.370749 0.493829   -0.811814
 O 0.160811 0.37076 0.493943   -0.815425
 O 0.557005 0.56235 0.396229   -0.78003
 O 0.057016 0.562353 0.396233   -0.620959
 O 0.66956 0.155282 0.165429   -1.009726
 O 0.170439 0.1553 0.165872   -1.021173
 O 0.833881 0.062396 0.096194   -0.932873
 O 0.334141 0.062366 0.096179   -0.89389
 O 0.661262 0.129312 0.005075   -0.808834
 O 0.161008 0.129309 0.005585   -0.81373
 O 0.556811 0.937726 0.103723   -0.779881
 O 0.056719 0.937795 0.103754   -0.616947
 O 0.834029 0.655312 0.833937   -0.977865
 O 0.333976 0.655305 0.833957   -0.99496
 O 0.670635 0.562377 0.903834   -0.828156
 O 0.170607 0.562372 0.90387   -0.95704
 O 0.844186 0.629218 0.994136   -0.884344
 O 0.344175 0.629227 0.994156   -0.817194
 O 0.94815 0.437668 0.89621   -0.766967
 O 0.4481 0.437686 0.896184   -0.81569
 O 0.834001 0.844691 0.666121   -0.988018
 O 0.33403 0.844676 0.66613   -1.010633
 O 0.670743 0.937679 0.596161   -0.829623
 O 0.170751 0.937667 0.596179   -0.965892
 O 0.844288 0.870692 0.505903   -0.884415
 O 0.344298 0.870693 0.505917   -0.816048
 O 0.948236 0.062323 0.603744   -0.759282
 O 0.448284 0.062331 0.603729   -0.806584
 O 0.531464 0.750012 0.750238   -0.68825
 O 0.031498 0.750005 0.750066   -0.828507
 O 0.973591 0.249999 0.250911   -0.715922
 O 0.473501 0.250028 0.25105   -0.735153
