#{'_ref': 'TBD', '_srcid': 'CAKYAQ_clean', 'submitters': [{'name': 'Dalar Nazarian Jeff Camp and David Sholl', 'email': 'dalar@gatech.edu jcamp6@gatech.edu'}], '_method': 'VASP DFT with PBE;DDEC'}
data_Zn2H7C12O7
_symmetry_space_group_name_H-M   'P 1'
_cell_length_a   14.52800012
_cell_length_b   15.81000000
_cell_length_c   18.95499971
_cell_angle_alpha   90.01400127
_cell_angle_beta   90.79400056
_cell_angle_gamma   90.07699911
_symmetry_Int_Tables_number   1
_chemical_formula_structural   Zn2H7C12O7
_chemical_formula_sum   'Zn16 H56 C96 O56'
_cell_volume   4353.30781769
_cell_formula_units_Z   8
loop_
 _symmetry_equiv_pos_site_id
 _symmetry_equiv_pos_as_xyz
  1  'x, y, z'
loop_
 _atom_site_label
 _atom_site_fract_x
 _atom_site_fract_y
 _atom_site_fract_z
 _atom_site_charge
 Zn 0.472232 0.573534 0.039461   1.081237
 Zn 0.656927 0.640398 0.034391   1.043396
 Zn 0.531051 0.930034 0.539811   1.077511
 Zn 0.344517 0.862974 0.531154   1.049733
 Zn 0.531083 0.429881 0.960494   1.08567
 Zn 0.344028 0.363492 0.965766   1.048993
 Zn 0.468795 0.073602 0.460157   1.087847
 Zn 0.655519 0.14053 0.468894   1.065435
 Zn 0.028038 0.07364 0.960626   1.080077
 Zn 0.843352 0.140336 0.96567   1.062791
 Zn 0.968062 0.430078 0.460143   1.082916
 Zn 0.152879 0.363171 0.468771   1.047798
 Zn 0.968873 0.929902 0.039483   1.075863
 Zn 0.155826 0.863525 0.034344   1.048637
 Zn 0.030747 0.573744 0.539869   1.084471
 Zn 0.843887 0.640049 0.531266   1.050967
 H 0.948734 0.650199 0.016414   0.1084
 H 0.888427 0.384144 0.014424   0.110817
 H 0.663665 0.739968 0.24359   0.120238
 H 0.391285 0.63306 0.243659   0.125615
 H 0.364613 0.694693 0.363006   0.122825
 H 0.63702 0.801713 0.363608   0.120773
 H 0.652822 0.495457 0.034828   0.405557
 H 0.052958 0.852783 0.513009   0.106868
 H 0.111721 0.119054 0.516792   0.109427
 H 0.341601 0.760223 0.738325   0.122009
 H 0.61236 0.870418 0.746336   0.123226
 H 0.638055 0.809649 0.866598   0.116784
 H 0.367119 0.699486 0.859346   0.127453
 H 0.350158 0.00787 0.534745   0.407001
 H 0.052197 0.35332 0.0   0.1013
 H 0.112479 0.619392 0.985417   0.108622
 H 0.337907 0.263441 0.757234   0.120602
 H 0.61008 0.37071 0.755803   0.124704
 H 0.635837 0.309112 0.636321   0.1237
 H 0.363623 0.201694 0.637093   0.126627
 H 0.350469 0.508403 0.965098   0.40569
 H 0.946507 0.14994 0.486696   0.111087
 H 0.887701 0.883681 0.482937   0.09966
 H 0.660278 0.240892 0.261435   0.12148
 H 0.388445 0.132979 0.252854   0.123134
 H 0.363649 0.19431 0.132723   0.121722
 H 0.635544 0.302372 0.140608   0.126948
 H 0.649304 0.995789 0.465203   0.431962
 H 0.551651 0.150234 0.0   0.103108
 H 0.611208 0.884205 0.984766   0.099473
 H 0.83626 0.23965 0.756762   0.121437
 H 0.108638 0.133353 0.756271   0.123958
 H 0.134971 0.194951 0.636841   0.122745
 H 0.862569 0.301385 0.636676   0.127486
 H 0.847308 0.99552 0.965166   0.431497
 H 0.444538 0.353237 0.487099   0.109255
 H 0.386835 0.61959 0.482911   0.108397
 H 0.158195 0.26368 0.261909   0.120614
 H 0.886163 0.370487 0.252278   0.124132
 H 0.862413 0.309181 0.131946   0.127437
 H 0.134521 0.202235 0.140871   0.124083
 H 0.148905 0.507944 0.465143   0.406911
 H 0.447383 0.853214 0.015679   0.108001
 H 0.387871 0.119257 0.014748   0.109621
 H 0.161308 0.764261 0.242659   0.120734
 H 0.888193 0.868903 0.243808   0.123616
 H 0.862698 0.806872 0.363192   0.120803
 H 0.135883 0.702195 0.362741   0.125985
 H 0.149506 0.008411 0.034958   0.406053
 H 0.552126 0.650423 0.512856   0.107461
 H 0.609875 0.384116 0.51697   0.111177
 H 0.83919 0.739985 0.738928   0.120091
 H 0.111321 0.633269 0.747031   0.124887
 H 0.136233 0.694563 0.86722   0.12321
 H 0.86405 0.801404 0.859816   0.120907
 H 0.849431 0.495308 0.534856   0.407694
 C 0.810743 0.536822 0.034529   0.658575
 C 0.90904 0.519029 0.017549   -0.079643
 C 0.972157 0.585445 0.009126   -0.084959
 C 0.937971 0.435208 0.008183   -0.086328
 C 0.541093 0.651644 0.163105   0.692795
 C 0.528564 0.683878 0.23627   -0.087309
 C 0.598636 0.730291 0.270334   -0.075345
 C 0.444657 0.669946 0.270295   -0.072044
 C 0.479249 0.79569 0.438034   0.68212
 C 0.498889 0.752703 0.369824   -0.091055
 C 0.429848 0.704224 0.336603   -0.069832
 C 0.583915 0.764473 0.336883   -0.067657
 C 0.190866 0.96629 0.533254   0.660554
 C 0.091845 0.984075 0.516893   -0.088502
 C 0.028822 0.917583 0.507135   -0.072798
 C 0.062181 0.067986 0.50945   -0.085764
 C 0.463411 0.850242 0.661476   0.694098
 C 0.475903 0.817973 0.73493   -0.087363
 C 0.406049 0.770791 0.767013   -0.073811
 C 0.559101 0.832974 0.771415   -0.073388
 C 0.523488 0.708022 0.938717   0.678682
 C 0.504425 0.750192 0.869662   -0.08754
 C 0.573357 0.79919 0.838289   -0.070817
 C 0.420157 0.737173 0.834131   -0.070784
 C 0.190286 0.466761 0.965492   0.661272
 C 0.091918 0.484493 0.982408   -0.095376
 C 0.028786 0.418079 0.0   -0.062167
 C 0.06296 0.568317 0.991715   -0.078188
 C 0.461146 0.351984 0.837108   0.695149
 C 0.473011 0.3197 0.763878   -0.088578
 C 0.402699 0.273195 0.730177   -0.074534
 C 0.556575 0.333729 0.729427   -0.071609
 C 0.520835 0.207944 0.561891   0.676989
 C 0.501618 0.250882 0.630185   -0.088755
 C 0.570861 0.299461 0.663053   -0.071739
 C 0.4169 0.239004 0.663551   -0.072888
 C 0.808592 0.036767 0.466689   0.803377
 C 0.907591 0.018668 0.482846   -0.125132
 C 0.970642 0.085144 0.492565   -0.061987
 C 0.937254 0.934748 0.490254   -0.09327
 C 0.53732 0.151946 0.338114   0.691516
 C 0.525389 0.184263 0.2646   -0.089139
 C 0.595771 0.23095 0.232666   -0.074799
 C 0.442145 0.17006 0.22795   -0.073229
 C 0.479099 0.2955 0.061013   0.677007
 C 0.497781 0.25282 0.129961   -0.088588
 C 0.428382 0.204181 0.161131   -0.07135
 C 0.582102 0.264982 0.165633   -0.070353
 C 0.689341 0.036883 0.965406   0.809459
 C 0.590964 0.019057 0.982203   -0.136372
 C 0.528054 0.085448 0.0   -0.048045
 C 0.561799 0.93522 0.991234   -0.086907
 C 0.958904 0.151595 0.836963   0.689571
 C 0.971348 0.183844 0.763817   -0.089239
 C 0.901189 0.230097 0.72989   -0.074209
 C 0.055202 0.170078 0.729696   -0.07283
 C 0.020161 0.295467 0.562017   0.675777
 C 0.000624000000002 0.252585 0.630248   -0.086264
 C 0.069814 0.204317 0.663356   -0.073591
 C 0.915714 0.264255 0.663316   -0.070055
 C 0.306965 0.466704 0.46672   0.66044
 C 0.406093 0.484542 0.482977   -0.085416
 C 0.468906 0.41805 0.492815   -0.075552
 C 0.436153 0.568471 0.490277   -0.085507
 C 0.034457 0.351804 0.338076   0.694622
 C 0.023115 0.319673 0.264502   -0.090772
 C 0.093901 0.273374 0.232849   -0.071557
 C 0.940104 0.333658 0.227538   -0.072678
 C 0.978404 0.208326 0.06089   0.67032
 C 0.0 0.25121 0.129779   -0.085111
 C 0.926938 0.29956 0.16064   -0.081228
 C 0.080836 0.23937 0.165734   -0.066095
 C 0.309761 0.966666 0.034438   0.65846
 C 0.408099 0.984404 0.01733   -0.0835
 C 0.470988 0.918005 0.008614   -0.078882
 C 0.437258 0.068232 0.008243   -0.08892
 C 0.037915 0.851894 0.162817   0.695215
 C 0.025816 0.819268 0.235911   -0.090386
 C 0.096393 0.773355 0.269658   -0.069982
 C 0.94197 0.83242 0.270212   -0.072546
 C 0.978571 0.707228 0.43787   0.677886
 C 0.0 0.750091 0.369497   -0.084479
 C 0.927829 0.797944 0.336536   -0.081459
 C 0.082353 0.739 0.336235   -0.065352
 C 0.689748 0.536921 0.533206   0.660264
 C 0.59059 0.519137 0.516899   -0.082967
 C 0.527771 0.585618 0.507086   -0.079064
 C 0.560526 0.435209 0.509602   -0.085705
 C 0.962354 0.651854 0.661935   0.694965
 C 0.974243 0.684012 0.73551   -0.089332
 C 0.903787 0.7303 0.767595   -0.074293
 C 0.057599 0.67008 0.772058   -0.070558
 C 0.020797 0.795367 0.939061   0.681042
 C 0.001965 0.752522 0.870178   -0.089596
 C 0.071426 0.704181 0.838898   -0.071079
 C 0.917523 0.764309 0.834652   -0.069933
 O 0.472471 0.611035 0.135837   -0.605415
 O 0.616793 0.666872 0.132501   -0.600807
 O 0.785877 0.615591 0.027987   -0.613435
 O 0.758199 0.477307 0.052417   -0.563188
 O 0.542979 0.840435 0.466203   -0.605319
 O 0.398182 0.785762 0.462711   -0.591398
 O 0.597232 0.522169 0.009254   -0.991457
 O 0.531292 0.892379 0.636119   -0.607459
 O 0.388305 0.833672 0.628955   -0.601389
 O 0.215519 0.887689 0.524981   -0.613834
 O 0.243856 0.025429 0.552216   -0.565888
 O 0.459826 0.663367 0.965709   -0.595951
 O 0.604337 0.718429 0.965435   -0.593661
 O 0.404556 0.981296 0.509055   -0.992119
 O 0.530109 0.392446 0.864089   -0.607204
 O 0.385633 0.336879 0.867951   -0.60289
 O 0.215068 0.387893 0.972087   -0.610646
 O 0.242822 0.526181 0.947632   -0.56849
 O 0.457005 0.163256 0.533814   -0.599118
 O 0.601823 0.217925 0.537034   -0.592382
 O 0.405551 0.481412 0.990632   -0.991505
 O 0.46857 0.111306 0.363774   -0.610995
 O 0.61291 0.167103 0.370451   -0.600383
 O 0.7844 0.115456 0.475126   -0.753618
 O 0.755168 0.0 0.447768   -0.548437
 O 0.543026 0.340141 0.034331   -0.5934
 O 0.3983 0.285408 0.034156   -0.592713
 O 0.594916 0.022364 0.49098   -0.996274
 O 0.027497 0.11105 0.864191   -0.608736
 O 0.883227 0.166768 0.867546   -0.597331
 O 0.714366 0.115673 0.972075   -0.757191
 O 0.741793 0.0 0.947519   -0.546632
 O 0.956647 0.340294 0.533854   -0.594128
 O 0.101173 0.285413 0.537255   -0.591007
 O 0.902929 0.022192 0.990785   -0.994061
 O 0.965637 0.392278 0.363704   -0.604581
 O 0.109832 0.336566 0.370596   -0.604661
 O 0.281962 0.388203 0.47504   -0.610815
 O 0.254098 0.52584 0.447697   -0.567351
 O 0.042255 0.16355 0.034365   -0.595137
 O 0.897716 0.218379 0.033899   -0.588343
 O 0.094093 0.481519 0.490836   -0.993691
 O 0.969101 0.892448 0.135864   -0.606671
 O 0.113523 0.837003 0.132074   -0.602863
 O 0.284822 0.887751 0.027981   -0.61446
 O 0.257419 0.026068 0.052387   -0.566386
 O 0.042755 0.663254 0.46614   -0.594451
 O 0.897505 0.716585 0.46263   -0.596702
 O 0.094464 0.981409 0.009357   -0.98836
 O 0.031126 0.611353 0.636242   -0.606836
 O 0.886865 0.667055 0.629558   -0.603869
 O 0.714742 0.615472 0.524853   -0.615968
 O 0.742523 0.477829 0.552291   -0.565022
 O 0.956946 0.840034 0.965697   -0.605031
 O 0.10159 0.785374 0.965895   -0.589915
 O 0.903761 0.522046 0.50919   -0.992845
