#{'_ref': 'TBD', '_srcid': 'CAKYAQ_clean', 'submitters': [{'name': 'Dalar Nazarian Jeff Camp and David Sholl', 'email': 'dalar@gatech.edu jcamp6@gatech.edu'}], '_method': 'VASP DFT with PBE;DDEC'}
data_CdH3C8NO4
_symmetry_space_group_name_H-M   'P 1'
_cell_length_a   5.61499979
_cell_length_b   18.96099996
_cell_length_c   23.88800000
_cell_angle_alpha   89.93200110
_cell_angle_beta   89.87300020
_cell_angle_gamma   89.56999952
_symmetry_Int_Tables_number   1
_chemical_formula_structural   CdH3C8NO4
_chemical_formula_sum   'Cd8 H24 C64 N8 O32'
_cell_volume   2543.18045562
_cell_formula_units_Z   8
loop_
 _symmetry_equiv_pos_site_id
 _symmetry_equiv_pos_as_xyz
  1  'x, y, z'
loop_
 _atom_site_label
 _atom_site_fract_x
 _atom_site_fract_y
 _atom_site_fract_z
 _atom_site_charge
 Cd 0.419802 0.688434 0.460825   1.099958
 Cd 0.918482 0.808634 0.461131   1.095103
 Cd 0.0 0.308709 0.541753   1.133822
 Cd 0.424665 0.188428 0.541301   1.08189
 Cd 0.418739 0.808728 0.960184   1.100874
 Cd 0.924941 0.688436 0.960304   1.104418
 Cd 0.0 0.18857 0.041961   1.059508
 Cd 0.420508 0.308858 0.0   1.022137
 H 0.989849 0.549006 0.48349   0.124958
 H 0.049658 0.391643 0.354513   0.138926
 H 0.934182 0.608891 0.30912   0.130302
 H 0.0 0.389832 0.193894   0.111937
 H 0.0 0.448254 0.019259   0.115521
 H 0.054085 0.606007 0.147549   0.138646
 H 0.488549 0.447721 0.519017   0.124176
 H 0.547536 0.604929 0.64785   0.142095
 H 0.430037 0.388302 0.693452   0.128686
 H 0.434385 0.607898 0.808806   0.131183
 H 0.493653 0.548883 0.983311   0.11488
 H 0.545126 0.39065 0.854822   0.131796
 H 0.989438 0.948395 0.98329   0.093326
 H 0.053198 0.106146 0.854596   0.112775
 H 0.931128 0.889958 0.808856   0.116793
 H 0.0 0.108801 0.693103   0.111883
 H 0.0 0.048796 0.518836   0.11877
 H 0.048074 0.891368 0.64812   0.137856
 H 0.491949 0.048774 0.019113   0.138423
 H 0.541441 0.890419 0.147815   0.141024
 H 0.436179 0.107878 0.193619   0.130307
 H 0.43015 0.888267 0.309363   0.131302
 H 0.489057 0.947686 0.48361   0.127731
 H 0.553267 0.104672 0.354373   0.136989
 C 0.897825 0.659818 0.415109   0.665606
 C 0.964972 0.587073 0.397893   -0.139624
 C 0.997843 0.535307 0.439272   0.004576
 C 0.021528 0.464611 0.42359   -0.077243
 C 0.011067 0.408105 0.46704   0.619264
 C 0.031079 0.446703 0.366851   -0.100958
 C 0.009738 0.498905 0.325561   0.174451
 C 0.96738 0.569238 0.341233   -0.089399
 C 0.010851 0.499204 0.176975   0.17554
 C 0.0 0.429048 0.161598   -0.078998
 C 0.0 0.410833 0.105023   -0.200142
 C 0.0 0.338324 0.088224   0.920073
 C 0.99874 0.462135 0.063419   -0.035497
 C 0.024244 0.532756 0.078813   -0.077351
 C 0.015498 0.589002 0.035123   0.614185
 C 0.034029 0.550992 0.135472   -0.10667
 C 0.396841 0.337268 0.587449   0.611958
 C 0.46218 0.40986 0.604652   -0.121321
 C 0.49584 0.461437 0.563225   0.000654
 C 0.519614 0.53203 0.578834   -0.077296
 C 0.510431 0.588564 0.535354   0.619811
 C 0.528526 0.549953 0.635563   -0.097536
 C 0.506068 0.49793 0.676905   0.180427
 C 0.46368 0.427769 0.661301   -0.101862
 C 0.507062 0.497833 0.825526   0.182653
 C 0.467287 0.568358 0.841023   -0.099267
 C 0.467171 0.586558 0.897614   -0.130998
 C 0.402619 0.659612 0.914599   0.662965
 C 0.499679 0.534932 0.939126   0.010564
 C 0.520978 0.464087 0.923658   -0.150408
 C 0.510744 0.407823 0.967336   0.768013
 C 0.528283 0.445824 0.866969   -0.120712
 C 0.895708 0.838418 0.914501   0.680141
 C 0.963613 0.910975 0.897622   -0.280185
 C 0.997885 0.0 0.939089   0.035647
 C 0.023507 0.032901 0.923517   0.013884
 C 0.015379 0.089133 0.96713   0.704997
 C 0.033044 0.051135 0.866804   -0.092319
 C 0.00956 0.0 0.825436   0.185825
 C 0.965742 0.929184 0.841018   -0.088178
 C 0.00934 0.998691 0.676859   0.174901
 C 0.0 0.069089 0.661059   -0.073589
 C 0.0 0.086908 0.604373   -0.230926
 C 0.0 0.159783 0.58713   0.8587
 C 0.999245 0.035103 0.56308   0.009331
 C 0.021642 0.964353 0.578888   -0.085463
 C 0.010932 0.907924 0.535488   0.621429
 C 0.03033 0.946441 0.635667   -0.09562
 C 0.402861 0.159594 0.087792   0.224383
 C 0.466964 0.086479 0.104789   0.004324
 C 0.498102 0.034791 0.063315   -0.008958
 C 0.518017 0.963907 0.078882   -0.072146
 C 0.506326 0.907706 0.0353   0.609787
 C 0.525667 0.945621 0.13559   -0.090327
 C 0.506557 0.997676 0.176971   0.180978
 C 0.467773 0.068287 0.161414   -0.135335
 C 0.50855 0.0 0.325597   0.174857
 C 0.464536 0.927691 0.341393   -0.087387
 C 0.462539 0.909802 0.398083   -0.142582
 C 0.396602 0.837256 0.415463   0.66548
 C 0.49704 0.961344 0.439365   0.006118
 C 0.522917 0.031889 0.423584   -0.068805
 C 0.515108 0.088443 0.466968   0.622243
 C 0.532573 0.049759 0.366805   -0.098561
 N 0.016435 0.474638 0.269575   -0.156077
 N 0.01719 0.523632 0.232926   -0.160959
 N 0.512983 0.522254 0.732874   -0.160698
 N 0.511966 0.473323 0.769574   -0.162111
 N 0.016193 0.023643 0.769404   -0.169163
 N 0.015313 0.974534 0.732918   -0.155616
 N 0.511868 0.973162 0.232957   -0.157642
 N 0.515459 0.022098 0.269565   -0.163805
 O 0.012677 0.688503 0.457019   -0.656748
 O 0.728472 0.691451 0.390809   -0.565088
 O 0.0 0.425882 0.518644   -0.594953
 O 0.010407 0.343573 0.451701   -0.566367
 O 0.0 0.308034 0.112801   -0.461491
 O 0.012313 0.308647 0.046447   -0.847924
 O 0.020414 0.65365 0.050094   -0.572215
 O 0.990211 0.571012 0.98371   -0.601362
 O 0.51301 0.308517 0.545395   -0.639159
 O 0.228403 0.30584 0.611801   -0.537258
 O 0.489729 0.570938 0.483751   -0.595164
 O 0.510222 0.653086 0.550715   -0.569895
 O 0.23273 0.691352 0.890499   -0.561051
 O 0.519535 0.688557 0.956042   -0.662957
 O 0.509855 0.343195 0.952257   -0.63024
 O 0.490112 0.425928 0.0   -0.469145
 O 0.01114 0.80861 0.956159   -0.674348
 O 0.725816 0.808135 0.890066   -0.570925
 O 0.0 0.071106 0.018619   -0.595892
 O 0.020578 0.153784 0.952054   -0.543334
 O 0.0 0.191437 0.611245   -0.494335
 O 0.018437 0.188604 0.545456   -0.84593
 O 0.010086 0.843355 0.550864   -0.57354
 O 0.989725 0.925811 0.483892   -0.596108
 O 0.520355 0.18862 0.0   -0.709704
 O 0.232737 0.191308 0.111934   -0.308834
 O 0.490101 0.925836 0.983673   -0.577731
 O 0.500577 0.843116 0.05057   -0.576717
 O 0.228875 0.805728 0.39112   -0.565587
 O 0.511569 0.808513 0.457632   -0.655504
 O 0.520121 0.152968 0.451581   -0.569488
 O 0.490122 0.070863 0.518537   -0.581031
