#{'_ref': 'TBD', '_srcid': 'CAKYAQ_clean', 'submitters': [{'name': 'Dalar Nazarian Jeff Camp and David Sholl', 'email': 'dalar@gatech.edu jcamp6@gatech.edu'}], '_method': 'VASP DFT with PBE;DDEC'}
data_Cd3H14(C5O2)6
_symmetry_space_group_name_H-M   'P 1'
_cell_length_a   7.77700026
_cell_length_b   10.17799990
_cell_length_c   13.43000000
_cell_angle_alpha   68.03000127
_cell_angle_beta   85.13899993
_cell_angle_gamma   75.68300190
_symmetry_Int_Tables_number   1
_chemical_formula_structural   Cd3H14(C5O2)6
_chemical_formula_sum   'Cd3 H14 C30 O12'
_cell_volume   955.190379117
_cell_formula_units_Z   1
loop_
 _symmetry_equiv_pos_site_id
 _symmetry_equiv_pos_as_xyz
  1  'x, y, z'
loop_
 _atom_site_label
 _atom_site_fract_x
 _atom_site_fract_y
 _atom_site_fract_z
 _atom_site_charge
 Cd 0.141834 0.339392 0.452717   1.112425
 Cd 0.858138 0.66063 0.547283   1.112392
 Cd 0.499994 1.19999999981e-05 0.499996   1.136888
 H 0.15143 0.86503 0.448685   0.109825
 H 0.220526 0.74212 0.172897   0.114812
 H 0.183894 0.188778 0.135831   0.11388
 H 0.396568 0.789858 0.041286   0.115042
 H 0.44452 0.843932 0.846962   0.115822
 H 0.155974 0.286806 0.777978   0.119801
 H 0.094892 0.23181 0.971527   0.117009
 H 0.848546 0.134984 0.551311   0.109871
 H 0.779452 0.257906 0.827093   0.114721
 H 0.816094 0.811238 0.864175   0.113751
 H 0.603432 0.210176 0.958712   0.115007
 H 0.55548 0.156096 0.153036   0.115843
 H 0.844014 0.71323 0.222022   0.119887
 H 0.905096 0.768222 0.028474   0.11713
 C 0.165992 0.038096 0.296066   -0.099796
 C 0.166652 0.894188 0.362328   -0.052865
 C 0.184614 0.788686 0.316569   -0.1143
 C 0.207232 0.826954 0.205669   -0.070034
 C 0.208598 0.97034 0.137937   0.033477
 C 0.183534 0.076012 0.184741   -0.076587
 C 0.239668 0.006012 0.021474   0.078395
 C 0.338746 0.898074 0.984016   -0.151863
 C 0.368528 0.928236 0.875196   -0.043274
 C 0.303036 0.068526 0.799877   -0.124394
 C 0.206886 0.177772 0.836234   -0.042886
 C 0.17466 0.146448 0.945342   -0.153855
 C 0.151552 0.151414 0.343456   0.666092
 C 0.176236 0.635824 0.384283   0.676191
 C 0.335362 0.099424 0.682854   0.695868
 C 0.833988 0.961916 0.703938   -0.100216
 C 0.833322 0.10583 0.637667   -0.052711
 C 0.815356 0.211334 0.683425   -0.114517
 C 0.79274 0.173068 0.794324   -0.069772
 C 0.791374 0.029686 0.862058   0.033435
 C 0.816444 0.924006 0.815262   -0.076248
 C 0.760302 0.994012 0.978522   0.078446
 C 0.66124 0.101954 0.015981   -0.151969
 C 0.63146 0.07179 0.124801   -0.043315
 C 0.696942 0.931512 0.200119   -0.124163
 C 0.793098 0.822262 0.163766   -0.043087
 C 0.825322 0.853584 0.054659   -0.15398
 C 0.84844 0.84859 0.656553   0.666113
 C 0.82373 0.364194 0.615704   0.676292
 C 0.664634 0.900624 0.317141   0.695689
 O 0.088316 0.283564 0.291928   -0.54261
 O 0.207418 0.107312 0.443171   -0.700038
 O 0.131164 0.60315 0.482967   -0.640202
 O 0.215416 0.541052 0.339861   -0.57225
 O 0.420232 0.9887 0.659524   -0.613691
 O 0.281638 0.22826 0.616448   -0.63841
 O 0.911674 0.716444 0.708088   -0.542511
 O 0.792566 0.892686 0.556839   -0.700039
 O 0.868786 0.396866 0.517019   -0.640272
 O 0.784564 0.458968 0.660126   -0.572307
 O 0.579778 0.011356 0.340466   -0.613572
 O 0.718334 0.771788 0.383553   -0.63837
