#{'_ref': 'TBD', '_srcid': 'CAKYAQ_clean', 'submitters': [{'name': 'Dalar Nazarian Jeff Camp and David Sholl', 'email': 'dalar@gatech.edu jcamp6@gatech.edu'}], '_method': 'VASP DFT with PBE;DDEC'}
data_ZnH5C6(N2O)2
_symmetry_space_group_name_H-M   'P 1'
_cell_length_a   12.88400032
_cell_length_b   13.18499996
_cell_length_c   16.25200000
_cell_angle_alpha   113.65199859
_cell_angle_beta   112.96399870
_cell_angle_gamma   90.49300079
_symmetry_Int_Tables_number   1
_chemical_formula_structural   ZnH5C6(N2O)2
_chemical_formula_sum   'Zn8 H40 C48 N32 O16'
_cell_volume   2283.42714238
_cell_formula_units_Z   8
loop_
 _symmetry_equiv_pos_site_id
 _symmetry_equiv_pos_as_xyz
  1  'x, y, z'
loop_
 _atom_site_label
 _atom_site_fract_x
 _atom_site_fract_y
 _atom_site_fract_z
 _atom_site_charge
 Zn 0.588649 0.133464 0.612809   0.834077
 Zn 0.023427 0.4792 0.612935   0.832207
 Zn 0.490103 0.590191 0.615174   0.832683
 Zn 0.124352 0.025183 0.615506   0.833629
 Zn 0.411301 0.866513 0.387074   0.832785
 Zn 0.976577 0.520758 0.38695   0.829739
 Zn 0.509903 0.409777 0.384696   0.832828
 Zn 0.875601 0.974751 0.384373   0.833256
 H 0.0 0.136661 0.838259   0.052598
 H 0.806731 0.11568 0.563928   0.115728
 H 0.6431 0.818467 0.233441   0.347696
 H 0.507946 0.787886 0.231888   0.349603
 H 0.912439 0.702464 0.840182   0.114433
 H 0.757168 0.447952 0.564148   0.113908
 H 0.591886 0.415353 0.233647   0.347642
 H 0.725297 0.445023 0.232039   0.348454
 H 0.703157 0.0 0.83824   0.053619
 H 0.482963 0.808462 0.571512   0.117968
 H 0.377582 0.62442 0.221303   0.350423
 H 0.398847 0.490075 0.218392   0.352628
 H 0.135143 0.909903 0.840412   0.11434
 H 0.088235 0.763066 0.571839   0.117095
 H 0.8469 0.59785 0.221518   0.349612
 H 0.822952 0.72915 0.218533   0.351789
 H 0.074136 0.863275 0.161594   0.111691
 H 0.193242 0.884241 0.435975   0.113101
 H 0.356853 0.181488 0.766438   0.348714
 H 0.491995 0.212094 0.767987   0.349274
 H 0.087529 0.297444 0.159671   0.113542
 H 0.242835 0.552051 0.435749   0.113708
 H 0.408111 0.584546 0.766211   0.34795
 H 0.274708 0.554875 0.767819   0.34953
 H 0.296763 0.071361 0.161652   0.111927
 H 0.516978 0.19149 0.428344   0.115549
 H 0.622371 0.375535 0.778555   0.350799
 H 0.601145 0.509887 0.78147   0.352915
 H 0.864731 0.090061 0.15948   0.112089
 H 0.911715 0.236875 0.428031   0.115455
 H 0.153108 0.402102 0.778344   0.349987
 H 0.177036 0.270798 0.781333   0.350275
 H 0.092093 0.173515 0.998524   0.089815
 H 0.751807 0.3468 0.000323000000002   0.124518
 H 0.907815 0.826383 0.001331   0.092167
 H 0.248169 0.653195 0.999599   0.115176
 H 0.826096 0.094555 0.998317   0.09077
 H 0.65618 0.75644 0.000484999999998   0.12466
 H 0.17377 0.905468 0.001615   0.090798
 H 0.343743 0.243498 0.999369   0.116546
 C 0.82828 0.239536 0.909187   -0.086069
 C 0.924743 0.190868 0.90906   -0.05676
 C 0.628587 0.910101 0.361526   0.659011
 C 0.734275 0.050631 0.502301   0.217508
 C 0.726501 0.21883 0.814737   0.650919
 C 0.08057 0.66978 0.909721   -0.138908
 C 0.984519 0.718912 0.91059   -0.029678
 C 0.733832 0.451888 0.361705   0.658834
 C 0.768277 0.451698 0.502516   0.217978
 C 0.087005 0.595478 0.814747   0.664866
 C 0.671446 0.832339 0.909335   -0.084376
 C 0.719654 0.928062 0.909086   -0.056756
 C 0.423584 0.614891 0.352705   0.664976
 C 0.467786 0.732045 0.505084   0.218451
 C 0.59935 0.730676 0.814839   0.658741
 C 0.237467 0.076818 0.90977   -0.140899
 C 0.189689 0.981416 0.910762   -0.029849
 C 0.931298 0.738352 0.352832   0.665234
 C 0.037706 0.773199 0.505339   0.216957
 C 0.213967 0.08337 0.814651   0.653527
 C 0.171665 0.760419 0.090692   -0.137345
 C 0.075189 0.809069 0.090801   -0.03285
 C 0.371363 0.089862 0.638355   0.65843
 C 0.26569 0.949306 0.497595   0.21592
 C 0.273448 0.781156 0.185151   0.665336
 C 0.919406 0.33016 0.090158   -0.132906
 C 0.015443 0.28101 0.08927   -0.024928
 C 0.266173 0.54803 0.638163   0.65913
 C 0.231728 0.54828 0.497374   0.216011
 C 0.912999 0.40448 0.185141   0.656746
 C 0.328488 0.167636 0.090528   -0.137614
 C 0.280261 0.071937 0.090799   -0.031149
 C 0.576392 0.385069 0.647156   0.664565
 C 0.532171 0.267911 0.494774   0.215572
 C 0.400613 0.269302 0.185012   0.663692
 C 0.76244 0.923124 0.090093   -0.134132
 C 0.8102 0.018551 0.089122   -0.028503
 C 0.068688 0.261594 0.647033   0.664863
 C 0.962254 0.226744 0.494531   0.216467
 C 0.785938 0.91654 0.185199   0.661565
 C 0.017674 0.21173 0.998921   -0.096956
 C 0.82648 0.309126 0.999931   -0.028442
 C 0.982256 0.788202 0.000950000000003   -0.116285
 C 0.173482 0.690848 0.999977   -0.023662
 C 0.788529 0.020709 0.998807   -0.099977
 C 0.692883 0.830703 2.50000000008e-05   -0.032688
 C 0.211351 0.979293 0.001109   -0.112955
 C 0.307031 0.169251 0.999846   -0.023183
 N 0.633695 0.033601 0.503785   -0.251456
 N 0.563548 0.943033 0.412535   -0.424468
 N 0.736473 0.977224 0.416097   -0.540007
 N 0.594596 0.821997 0.271735   -0.744151
 N 0.870231 0.47051 0.503927   -0.255251
 N 0.849558 0.470087 0.412647   -0.423028
 N 0.68036 0.438961 0.416341   -0.538498
 N 0.678333 0.45041 0.271935   -0.742646
 N 0.482187 0.633089 0.505784   -0.258791
 N 0.453455 0.555743 0.407415   -0.431313
 N 0.431679 0.726586 0.412618   -0.547101
 N 0.386382 0.570157 0.253782   -0.743279
 N 0.023968 0.872843 0.506002   -0.259832
 N 0.95541 0.852044 0.407539   -0.43016
 N 0.982386 0.686419 0.412815   -0.545756
 N 0.870978 0.684444 0.253791   -0.742347
 N 0.366263 0.966354 0.496105   -0.255424
 N 0.4364 0.05694 0.587345   -0.421547
 N 0.263489 0.022717 0.583796   -0.538039
 N 0.405346 0.177978 0.72814   -0.743494
 N 0.129774 0.529462 0.495962   -0.256011
 N 0.150448 0.529846 0.587228   -0.423138
 N 0.319646 0.560986 0.583537   -0.537522
 N 0.32167 0.549464 0.727917   -0.742864
 N 0.517797 0.366872 0.494078   -0.262016
 N 0.546545 0.444222 0.59245   -0.428127
 N 0.568272 0.27337 0.58724   -0.545268
 N 0.613597 0.4298 0.746081   -0.741661
 N 0.975984 0.127099 0.493869   -0.262469
 N 0.044561 0.1479 0.59233   -0.428922
 N 0.017595 0.313526 0.587051   -0.54586
 N 0.129027 0.315509 0.746072   -0.740663
 O 0.64275 0.266404 0.819347   -0.602227
 O 0.729094 0.15282 0.731758   -0.590815
 O 0.174759 0.551663 0.818588   -0.601837
 O 0.001505 0.578901 0.732108   -0.593442
 O 0.558981 0.645694 0.818655   -0.606076
 O 0.582127 0.733984 0.732173   -0.589251
 O 0.257011 0.17204 0.817495   -0.599696
 O 0.148898 0.997221 0.732423   -0.590333
 O 0.3572 0.73358 0.18055   -0.602037
 O 0.270849 0.847166 0.268127   -0.595703
 O 0.825257 0.448314 0.18131   -0.595592
 O 0.0 0.421042 0.267775   -0.591791
 O 0.440997 0.354259 0.181174   -0.602534
 O 0.417853 0.266011 0.267688   -0.592807
 O 0.742906 0.827848 0.182332   -0.60138
 O 0.851002 0.002682 0.267435   -0.591491
