#{'_ref': 'TBD', '_srcid': 'CAKYAQ_clean', 'submitters': [{'name': 'Dalar Nazarian Jeff Camp and David Sholl', 'email': 'dalar@gatech.edu jcamp6@gatech.edu'}], '_method': 'VASP DFT with PBE;DDEC'}
data_CaH4(C3O2)3
_symmetry_space_group_name_H-M   'P 1'
_cell_length_a   6.82150039
_cell_length_b   9.31303153
_cell_length_c   10.18200000
_cell_angle_alpha   67.19159674
_cell_angle_beta   81.40499834
_cell_angle_gamma   73.37537345
_symmetry_Int_Tables_number   1
_chemical_formula_structural   CaH4(C3O2)3
_chemical_formula_sum   'Ca2 H8 C18 O12'
_cell_volume   570.802573249
_cell_formula_units_Z   2
loop_
 _symmetry_equiv_pos_site_id
 _symmetry_equiv_pos_as_xyz
  1  'x, y, z'
loop_
 _atom_site_label
 _atom_site_fract_x
 _atom_site_fract_y
 _atom_site_fract_z
 _atom_site_charge
 Ca 0.244754 0.455114 0.11792   1.535849
 Ca 0.755358 0.54482 0.882084   1.535945
 H 0.250136 0.272928 0.446218   0.409865
 H 0.244046 0.91261 0.239934   0.13052
 H 0.27525 0.892738 0.66703   0.127618
 H 0.222218 0.477292 0.598388   0.123961
 H 0.749978 0.726996 0.553778   0.410043
 H 0.756078 0.087304 0.760066   0.130455
 H 0.724892 0.107188 0.332962   0.127669
 H 0.777888 0.522628 0.401616   0.123985
 C 0.2372 0.68577 0.409046   -0.128398
 C 0.250446 0.675464 0.649332   -0.151484
 C 0.246058 0.84689 0.354694   0.007879
 C 0.25778 0.095312 0.389892   0.678255
 C 0.263086 0.835378 0.594662   -0.017904
 C 0.229754 0.60575 0.308   0.676581
 C 0.25407 0.58792 0.807138   0.751851
 C 0.234356 0.60127 0.556666   -0.0006
 C 0.256082 0.922698 0.447434   -0.165254
 C 0.762936 0.314144 0.59096   -0.128508
 C 0.749706 0.324448 0.350672   -0.151449
 C 0.75408 0.153026 0.645306   0.007783
 C 0.742376 0.904604 0.610102   0.67884
 C 0.737056 0.164544 0.405336   -0.018028
 C 0.770336 0.394178 0.692006   0.676174
 C 0.74607 0.411998 0.192866   0.752169
 C 0.765774 0.398646 0.44334   -0.000656
 C 0.744066 0.077218 0.552564   -0.164855
 O 0.224542 0.456716 0.358736   -0.726417
 O 0.387098 0.599678 0.875964   -0.740666
 O 0.256404 0.153432 0.490208   -0.509086
 O 0.123124 0.506252 0.871738   -0.738493
 O 0.258964 0.176782 0.259792   -0.621665
 O 0.230202 0.684902 0.175056   -0.642478
 O 0.775542 0.543212 0.641266   -0.726088
 O 0.613018 0.40026 0.124046   -0.740901
 O 0.743728 0.84649 0.509786   -0.509562
 O 0.876984 0.493696 0.128268   -0.738477
 O 0.74115 0.823142 0.740202   -0.622107
 O 0.769866 0.315034 0.824952   -0.642367
