#{'_ref': 'TBD', '_srcid': 'CAKYAQ_clean', 'submitters': [{'name': 'Dalar Nazarian Jeff Camp and David Sholl', 'email': 'dalar@gatech.edu jcamp6@gatech.edu'}], '_method': 'VASP DFT with PBE;DDEC'}
data_ZnH2(CO2)2
_symmetry_space_group_name_H-M   'P 1'
_cell_length_a   10.11800015
_cell_length_b   11.52650031
_cell_length_c   14.92700000
_cell_angle_alpha   91.15099856
_cell_angle_beta   90.01000043
_cell_angle_gamma   90.04499849
_symmetry_Int_Tables_number   1
_chemical_formula_structural   ZnH2(CO2)2
_chemical_formula_sum   'Zn12 H24 C24 O48'
_cell_volume   1740.51151863
_cell_formula_units_Z   12
loop_
 _symmetry_equiv_pos_site_id
 _symmetry_equiv_pos_as_xyz
  1  'x, y, z'
loop_
 _atom_site_label
 _atom_site_fract_x
 _atom_site_fract_y
 _atom_site_fract_z
 _atom_site_charge
 Zn 0.071948 0.754894 0.131734   1.078962
 Zn 0.88241 0.740688 0.308793   1.062325
 Zn 0.571962 0.745124 0.368343   1.078885
 Zn 0.382418 0.759362 0.191205   1.062055
 Zn 0.928022 0.245094 0.86826   1.079027
 Zn 0.117562 0.259296 0.691206   1.062423
 Zn 0.428008 0.254862 0.631651   1.078917
 Zn 0.61755 0.240628 0.808796   1.061941
 Zn 0.999998 0.499994 0.999998   1.078654
 Zn 0.49999 2.0000000021e-06 0.5   1.077965
 Zn 0.0 2.0000000021e-06 0.999999   1.085578
 Zn 0.499984 0.499994 0.499999   1.085753
 H 0.242306 0.856914 0.371243   0.031711
 H 0.94679 0.47271 0.26882   0.036093
 H 0.390096 0.561998 0.044499   0.030736
 H 0.790848 0.981336 0.23097   0.023618
 H 0.837222 0.689134 0.92244   0.032482
 H 0.291198 0.002458 0.012519   0.038724
 H 0.742124 0.643362 0.128743   0.031752
 H 0.447736 0.027344 0.231126   0.036392
 H 0.89019 0.938564 0.455434   0.030652
 H 0.290648 0.518536 0.269018   0.023682
 H 0.336768 0.810588 0.57729   0.032203
 H 0.791146 0.498238 0.488007   0.038467
 H 0.757664 0.143092 0.628748   0.031686
 H 0.053188 0.527276 0.731174   0.035969
 H 0.609874 0.437978 0.955511   0.030724
 H 0.209114 0.018648 0.769025   0.023679
 H 0.16275 0.310858 0.07755   0.032472
 H 0.708774 0.997532 0.987477   0.038791
 H 0.257846 0.35663 0.871253   0.031701
 H 0.55222 0.972644 0.76887   0.036333
 H 0.109782 0.06144 0.54455   0.030628
 H 0.70932 0.481454 0.73098   0.0237
 H 0.663192 0.189404 0.422696   0.032102
 H 0.208816 0.501726 0.511973   0.038485
 C 0.160924 0.82453 0.328339   0.617807
 C 0.97454 0.518558 0.207224   0.609112
 C 0.28254 0.576552 0.051508   0.611826
 C 0.86377 0.952194 0.180007   0.615315
 C 0.898228 0.743024 0.96822   0.62922
 C 0.2732 0.929738 0.057765   0.620185
 C 0.66078 0.675622 0.171663   0.617319
 C 0.475008 0.98146 0.292794   0.608053
 C 0.782648 0.923714 0.448455   0.611618
 C 0.363646 0.547748 0.319963   0.615076
 C 0.398048 0.756792 0.531693   0.629284
 C 0.773134 0.570644 0.442491   0.620871
 C 0.839054 0.175442 0.671661   0.617785
 C 0.02538 0.481432 0.79276   0.609087
 C 0.717428 0.423436 0.948492   0.611872
 C 0.136198 0.047792 0.819991   0.61515
 C 0.101728 0.256968 0.03178   0.629277
 C 0.72677 0.07025 0.942231   0.619949
 C 0.339192 0.32437 0.828334   0.617376
 C 0.524978 0.018532 0.707199   0.608316
 C 0.217322 0.076312 0.551515   0.611627
 C 0.636324 0.45224 0.680034   0.614851
 C 0.601908 0.243198 0.468291   0.629621
 C 0.22683 0.42932 0.557488   0.620753
 O 0.189822 0.800644 0.246294   -0.620589
 O 0.04901 0.81523 0.364203   -0.560068
 O 0.978748 0.63 0.214446   -0.628538
 O 0.999354 0.459516 0.138075   -0.562811
 O 0.24856 0.65089 0.112924   -0.629392
 O 0.20677 0.519882 0.000593999999999   -0.556499
 O 0.91208 0.850456 0.191538   -0.630048
 O 0.889698 0.020208 0.118085   -0.556758
 O 0.972248 0.685558 0.022337   -0.627493
 O 0.888804 0.850712 0.964011   -0.569389
 O 0.152018 0.896088 0.06349   -0.615796
 O 0.3711 0.888978 0.098029   -0.562671
 O 0.689714 0.699392 0.253731   -0.62045
 O 0.548858 0.684854 0.135791   -0.559798
 O 0.47903 0.870026 0.285576   -0.628294
 O 0.499464 0.040508 0.362035   -0.561939
 O 0.748718 0.849216 0.38709   -0.62914
 O 0.706846 0.980174 0.499388   -0.556547
 O 0.411964 0.649558 0.308455   -0.630231
 O 0.389664 0.479744 0.381846   -0.556377
 O 0.472118 0.814368 0.477629   -0.627251
 O 0.38877 0.64909 0.536007   -0.569433
 O 0.65196 0.604108 0.436652   -0.615887
 O 0.871008 0.611272 0.402065   -0.563028
 O 0.810146 0.199356 0.7537   -0.620527
 O 0.950962 0.184776 0.635793   -0.560141
 O 0.021244 0.369986 0.785557   -0.628443
 O 0.000644000000001 0.540474 0.861922   -0.562808
 O 0.75141 0.349098 0.887076   -0.629427
 O 0.793198 0.480104 0.999407   -0.556517
 O 0.08789 0.149532 0.808461   -0.630072
 O 0.110264 0.979776 0.88191   -0.556646
 O 0.027726 0.314432 0.977652   -0.627507
 O 0.111172 0.14928 0.035979   -0.569399
 O 0.847952 0.103902 0.936505   -0.615591
 O 0.62887 0.111012 0.90197   -0.562668
 O 0.310256 0.300594 0.746267   -0.620323
 O 0.45111 0.315136 0.864209   -0.559825
 O 0.520942 0.129964 0.714421   -0.628299
 O 0.500494 0.959482 0.63796   -0.562097
 O 0.251256 0.150758 0.612917   -0.62898
 O 0.293128 0.019802 0.500617   -0.556727
 O 0.588002 0.350434 0.691545   -0.629982
 O 0.610304 0.520244 0.61815   -0.5564
 O 0.527856 0.185622 0.522366   -0.627495
 O 0.611204 0.3509 0.463989   -0.56944
 O 0.348012 0.395882 0.563348   -0.615814
 O 0.128964 0.388714 0.597936   -0.563062
