#{'_ref': 'TBD', '_srcid': 'CAKYAQ_clean', 'submitters': [{'name': 'Dalar Nazarian Jeff Camp and David Sholl', 'email': 'dalar@gatech.edu jcamp6@gatech.edu'}], '_method': 'VASP DFT with PBE;DDEC'}
data_ZnH2(CO2)2
_symmetry_space_group_name_H-M   'P 1'
_cell_length_a   10.08599953
_cell_length_b   11.59700022
_cell_length_c   14.79300000
_cell_angle_alpha   91.11499870
_cell_angle_beta   90.05999982
_cell_angle_gamma   90.01300200
_symmetry_Int_Tables_number   1
_chemical_formula_structural   ZnH2(CO2)2
_chemical_formula_sum   'Zn12 H24 C24 O48'
_cell_volume   1729.96921305
_cell_formula_units_Z   12
loop_
 _symmetry_equiv_pos_site_id
 _symmetry_equiv_pos_as_xyz
  1  'x, y, z'
loop_
 _atom_site_label
 _atom_site_fract_x
 _atom_site_fract_y
 _atom_site_fract_z
 _atom_site_charge
 Zn 0.07515 0.754932 0.129311   1.079557
 Zn 0.887664 0.740436 0.309484   1.06159
 Zn 0.576408 0.745086 0.370712   1.079688
 Zn 0.387204 0.759548 0.190706   1.061573
 Zn 0.924826 0.245068 0.87066   1.079866
 Zn 0.1123 0.259568 0.690486   1.061937
 Zn 0.42356 0.254916 0.629261   1.079723
 Zn 0.61277 0.240454 0.809264   1.061704
 Zn 0.999992 0.5 0.999995   1.078373
 Zn 0.499988 3.999999997e-06 0.499985   1.077995
 Zn 0.0 0.0 0.999997   1.086714
 Zn 0.499984 0.5 0.499988   1.086026
 H 0.24774 0.856718 0.372297   0.029798
 H 0.953478 0.475474 0.271976   0.036671
 H 0.392034 0.561918 0.042719   0.030938
 H 0.797618 0.980176 0.235114   0.023044
 H 0.836368 0.690864 0.920315   0.033261
 H 0.293192 0.003784 0.012205   0.038042
 H 0.747238 0.643456 0.127701   0.030007
 H 0.453314 0.024574 0.228224   0.0372
 H 0.892746 0.938616 0.457517   0.030796
 H 0.29742 0.52003 0.264834   0.022869
 H 0.336348 0.809318 0.578853   0.032883
 H 0.793786 0.495898 0.487752   0.038081
 H 0.752228 0.143284 0.627667   0.029671
 H 0.046486 0.524522 0.727985   0.036744
 H 0.607934 0.438084 0.95724   0.030858
 H 0.202344 0.019832 0.764851   0.02317
 H 0.1636 0.30914 0.079643   0.033358
 H 0.706776 0.996216 0.987758   0.037867
 H 0.25273 0.356546 0.872263   0.029997
 H 0.546642 0.975424 0.771737   0.037169
 H 0.10722 0.061392 0.542441   0.030809
 H 0.702556 0.479972 0.73513   0.022931
 H 0.663618 0.190688 0.421109   0.032925
 H 0.206182 0.504098 0.512209   0.038152
 C 0.16585 0.824056 0.329456   0.617126
 C 0.978974 0.51977 0.208806   0.608322
 C 0.284292 0.577218 0.049828   0.612728
 C 0.869 0.951708 0.182426   0.61533
 C 0.897958 0.743618 0.96683   0.628889
 C 0.275366 0.930646 0.057108   0.620782
 C 0.66552 0.676032 0.17061   0.618119
 C 0.478934 0.980208 0.291372   0.607014
 C 0.785032 0.92306 0.4503   0.611852
 C 0.368966 0.54841 0.317561   0.614908
 C 0.398244 0.75646 0.532708   0.629715
 C 0.77588 0.569124 0.442928   0.620375
 C 0.834116 0.175948 0.670509   0.617144
 C 0.020996 0.48023 0.79116   0.608407
 C 0.715678 0.422786 0.950135   0.612892
 C 0.13096 0.048296 0.81754   0.61545
 C 0.102012 0.256386 0.033128   0.628718
 C 0.724604 0.069354 0.942855   0.620856
 C 0.334448 0.32397 0.829355   0.618132
 C 0.521028 0.019796 0.708591   0.606815
 C 0.214934 0.076938 0.549669   0.611599
 C 0.631006 0.451592 0.682405   0.614865
 C 0.60172 0.243544 0.467253   0.629884
 C 0.224088 0.430876 0.557037   0.62012
 O 0.19393 0.800286 0.246579   -0.620586
 O 0.05407 0.81462 0.366503   -0.561207
 O 0.983772 0.63056 0.21457   -0.628659
 O 0.000582000000001 0.4597 0.139256   -0.562078
 O 0.251372 0.653692 0.110112   -0.628965
 O 0.207416 0.519528 9.29999999997e-05   -0.556297
 O 0.916564 0.849862 0.191912   -0.629345
 O 0.894046 0.020502 0.120594   -0.555306
 O 0.972968 0.68549 0.020422   -0.627518
 O 0.88827 0.850754 0.964123   -0.570296
 O 0.153848 0.897034 0.062605   -0.616073
 O 0.373522 0.889544 0.09744   -0.562054
 O 0.69406 0.699754 0.253475   -0.620814
 O 0.55356 0.68542 0.133672   -0.562046
 O 0.484076 0.869462 0.285505   -0.628181
 O 0.500434 0.040292 0.360996   -0.561492
 O 0.752344 0.846434 0.389976   -0.628974
 O 0.707996 0.98056 0.499884   -0.555486
 O 0.416738 0.65019 0.30815   -0.628841
 O 0.393996 0.479512 0.379363   -0.555579
 O 0.473514 0.81448 0.479314   -0.628268
 O 0.388538 0.64934 0.535627   -0.570075
 O 0.654356 0.60268 0.437379   -0.615265
 O 0.873968 0.61037 0.402703   -0.562313
 O 0.80604 0.199714 0.753386   -0.620618
 O 0.945896 0.185382 0.633461   -0.561237
 O 0.016196 0.36944 0.785403   -0.628756
 O 0.999384 0.540308 0.860706   -0.562314
 O 0.748602 0.346312 0.889852   -0.629014
 O 0.79255 0.480472 0.999877   -0.556358
 O 0.083398 0.150144 0.808057   -0.629621
 O 0.10592 0.979504 0.879374   -0.555422
 O 0.02699 0.314512 0.979542   -0.627511
 O 0.111692 0.14925 0.035843   -0.570174
 O 0.84612 0.102974 0.937368   -0.616222
 O 0.626448 0.110458 0.902528   -0.561978
 O 0.305906 0.300246 0.746491   -0.621004
 O 0.44641 0.314584 0.866292   -0.56199
 O 0.51589 0.13054 0.714466   -0.627922
 O 0.499536 0.959716 0.638963   -0.561512
 O 0.24762 0.15357 0.609988   -0.628892
 O 0.291972 0.01944 0.500083   -0.555455
 O 0.58323 0.349814 0.691821   -0.628864
 O 0.605972 0.520494 0.620606   -0.555512
 O 0.526454 0.185526 0.52065   -0.628503
 O 0.611432 0.350664 0.464343   -0.570085
 O 0.345612 0.397324 0.562594   -0.615064
 O 0.125998 0.389634 0.597264   -0.562282
