#{'_ref': 'TBD', '_srcid': 'CAKYAQ_clean', 'submitters': [{'name': 'Dalar Nazarian Jeff Camp and David Sholl', 'email': 'dalar@gatech.edu jcamp6@gatech.edu'}], '_method': 'VASP DFT with PBE;DDEC'}
data_ZnH2(CO2)2
_symmetry_space_group_name_H-M   'P 1'
_cell_length_a   10.11800008
_cell_length_b   11.59549984
_cell_length_c   14.79900000
_cell_angle_alpha   91.12900079
_cell_angle_beta   90.00699917
_cell_angle_gamma   90.05700223
_symmetry_Int_Tables_number   1
_chemical_formula_structural   ZnH2(CO2)2
_chemical_formula_sum   'Zn12 H24 C24 O48'
_cell_volume   1735.92910314
_cell_formula_units_Z   12
loop_
 _symmetry_equiv_pos_site_id
 _symmetry_equiv_pos_as_xyz
  1  'x, y, z'
loop_
 _atom_site_label
 _atom_site_fract_x
 _atom_site_fract_y
 _atom_site_fract_z
 _atom_site_charge
 Zn 0.071972 0.7549 0.129637   1.0776
 Zn 0.882666 0.740548 0.309042   1.060568
 Zn 0.571988 0.745114 0.370383   1.079084
 Zn 0.382654 0.759466 0.190962   1.06082
 Zn 0.928026 0.245088 0.870331   1.079136
 Zn 0.117334 0.259438 0.690928   1.060419
 Zn 0.428012 0.254874 0.629587   1.079045
 Zn 0.617346 0.240522 0.809006   1.060679
 Zn 0.999996 0.499992 0.999999   1.078395
 Zn 0.500004 2.0000000021e-06 0.499985   1.078534
 Zn 0.0 0.0 0.0   1.085907
 Zn 0.5 0.499994 0.499985   1.085644
 H 0.242474 0.855962 0.372434   0.030489
 H 0.949484 0.475464 0.271533   0.036703
 H 0.389918 0.562814 0.043259   0.031918
 H 0.79533 0.981342 0.23428   0.02373
 H 0.837622 0.690848 0.91938   0.033658
 H 0.291124 0.00331 0.0   0.038651
 H 0.742218 0.64402 0.127605   0.030753
 H 0.449886 0.024542 0.228467   0.036947
 H 0.890004 0.937566 0.456843   0.031504
 H 0.295086 0.518484 0.265747   0.023351
 H 0.33738 0.80891 0.580403   0.033656
 H 0.790886 0.497004 0.487892   0.038215
 H 0.757526 0.144024 0.627535   0.030364
 H 0.050506 0.524524 0.728433   0.036519
 H 0.610082 0.437174 0.956707   0.031706
 H 0.20468 0.01865 0.765694   0.024117
 H 0.162368 0.30914 0.080594   0.033646
 H 0.708878 0.996682 0.987675   0.038314
 H 0.257782 0.355972 0.872364   0.030796
 H 0.55012 0.975446 0.771501   0.036687
 H 0.109996 0.062416 0.543131   0.031454
 H 0.70492 0.4815 0.734219   0.023536
 H 0.662622 0.191076 0.419569   0.033658
 H 0.209114 0.502982 0.512078   0.038107
 C 0.160786 0.823818 0.329411   0.616901
 C 0.97585 0.519858 0.208597   0.60728
 C 0.282402 0.577384 0.050317   0.611223
 C 0.866728 0.95211 0.181976   0.615142
 C 0.89824 0.743634 0.966338   0.629529
 C 0.273298 0.93026 0.057297   0.589901
 C 0.660636 0.676192 0.170628   0.617067
 C 0.47609 0.980136 0.291419   0.607836
 C 0.782492 0.92277 0.449749   0.611146
 C 0.36658 0.547794 0.31802   0.615647
 C 0.398142 0.756214 0.533559   0.628675
 C 0.77318 0.56991 0.442793   0.620562
 C 0.839212 0.176168 0.670557   0.616818
 C 0.024146 0.48013 0.791371   0.607669
 C 0.717598 0.422606 0.949648   0.611271
 C 0.133274 0.04788 0.817995   0.61409
 C 0.101756 0.256354 0.033634   0.629997
 C 0.726702 0.069732 0.942674   0.621242
 C 0.339364 0.323796 0.829341   0.616552
 C 0.523914 0.019852 0.70855   0.607766
 C 0.217508 0.077212 0.550225   0.611465
 C 0.633422 0.452194 0.681948   0.615713
 C 0.601858 0.243774 0.466411   0.628433
 C 0.22682 0.430076 0.557176   0.620371
 O 0.189196 0.80026 0.246545   -0.620734
 O 0.049122 0.81466 0.366141   -0.560617
 O 0.978892 0.63074 0.214185   -0.627983
 O 0.000217999999997 0.459862 0.139462   -0.561873
 O 0.248672 0.653038 0.110985   -0.626627
 O 0.20639 0.51969 0.0   -0.555659
 O 0.91235 0.849684 0.191554   -0.629123
 O 0.893816 0.02078 0.120458   -0.556394
 O 0.972582 0.685506 0.020098   -0.626945
 O 0.888304 0.85078 0.963892   -0.570574
 O 0.152142 0.89655 0.062777   -0.603038
 O 0.371166 0.889344 0.097621   -0.54657
 O 0.689136 0.699754 0.253491   -0.620286
 O 0.548974 0.685376 0.13391   -0.560897
 O 0.479136 0.869264 0.285802   -0.628608
 O 0.500278 0.04016 0.360607   -0.562107
 O 0.74883 0.846964 0.389127   -0.627827
 O 0.70643 0.980376 0.499865   -0.555946
 O 0.412212 0.650296 0.308451   -0.628999
 O 0.39374 0.479154 0.379503   -0.556889
 O 0.472526 0.814442 0.479849   -0.626782
 O 0.388332 0.64905 0.536103   -0.570506
 O 0.652084 0.603572 0.43726   -0.615657
 O 0.8711 0.610726 0.402385   -0.561529
 O 0.810804 0.199726 0.753424   -0.620684
 O 0.950878 0.185328 0.633827   -0.560724
 O 0.02111 0.369248 0.785784   -0.62821
 O 0.99978 0.540126 0.860507   -0.562318
 O 0.75133 0.346958 0.888977   -0.627883
 O 0.793608 0.480296 0.999879   -0.556038
 O 0.08765 0.150304 0.808416   -0.628245
 O 0.106184 0.979208 0.879511   -0.556041
 O 0.027416 0.314482 0.979872   -0.627807
 O 0.111692 0.14921 0.036079   -0.572516
 O 0.84786 0.103442 0.937193   -0.615971
 O 0.628834 0.110646 0.902349   -0.561988
 O 0.310864 0.300234 0.746479   -0.620451
 O 0.451026 0.314612 0.866059   -0.560759
 O 0.520866 0.130722 0.714167   -0.627969
 O 0.499722 0.959828 0.639363   -0.562497
 O 0.251172 0.153016 0.610849   -0.62795
 O 0.293568 0.019612 0.500105   -0.556165
 O 0.587786 0.349692 0.691518   -0.629119
 O 0.60626 0.520832 0.620465   -0.557152
 O 0.527472 0.185544 0.520121   -0.626798
 O 0.611668 0.350936 0.463867   -0.570305
 O 0.347916 0.396412 0.562709   -0.615429
 O 0.1289 0.389258 0.597583   -0.561412
