#{'_ref': 'TBD', '_srcid': 'CAKYAQ_clean', 'submitters': [{'name': 'Dalar Nazarian Jeff Camp and David Sholl', 'email': 'dalar@gatech.edu jcamp6@gatech.edu'}], '_method': 'VASP DFT with PBE;DDEC'}
data_ZnH2(CO2)2
_symmetry_space_group_name_H-M   'P 1'
_cell_length_a   10.10349958
_cell_length_b   11.55949975
_cell_length_c   14.89200000
_cell_angle_alpha   91.04599916
_cell_angle_beta   90.03200080
_cell_angle_gamma   90.03700169
_symmetry_Int_Tables_number   1
_chemical_formula_structural   ZnH2(CO2)2
_chemical_formula_sum   'Zn12 H24 C24 O48'
_cell_volume   1738.96706754
_cell_formula_units_Z   12
loop_
 _symmetry_equiv_pos_site_id
 _symmetry_equiv_pos_as_xyz
  1  'x, y, z'
loop_
 _atom_site_label
 _atom_site_fract_x
 _atom_site_fract_y
 _atom_site_fract_z
 _atom_site_charge
 Zn 0.07177 0.24525 0.870381   1.077207
 Zn 0.882498 0.259304 0.691272   1.061414
 Zn 0.571708 0.25471 0.629589   1.077944
 Zn 0.382478 0.240488 0.808654   1.061629
 Zn 0.928222 0.754744 0.129643   1.078355
 Zn 0.117496 0.740686 0.308753   1.061538
 Zn 0.428288 0.745282 0.370436   1.077806
 Zn 0.617516 0.759504 0.19137   1.061525
 Zn 2.0000000021e-06 0.500006 0.999996   1.075179
 Zn 0.499996 0.999994 0.500012   1.078269
 Zn 0.999998 2.0000000021e-06 2.0000000021e-06   1.081978
 Zn 0.499996 0.499996 0.500012   1.082332
 H 0.242096 0.143408 0.628865   0.031332
 H 0.945418 0.525546 0.730431   0.036817
 H 0.390774 0.439598 0.953322   0.036736
 H 0.790918 0.019424 0.768671   0.024009
 H 0.839666 0.310374 0.081243   0.033025
 H 0.291192 0.996602 0.987078   0.039061
 H 0.742488 0.356136 0.871148   0.031658
 H 0.448856 0.974246 0.769965   0.036342
 H 0.890212 0.061642 0.544827   0.031553
 H 0.290704 0.480302 0.731059   0.023175
 H 0.33846 0.189648 0.419101   0.033062
 H 0.791214 0.503256 0.512898   0.038805
 H 0.757902 0.856586 0.371158   0.031112
 H 0.054548 0.474434 0.269582   0.03595
 H 0.60922 0.560368 0.046717   0.032003
 H 0.209088 0.980562 0.231349   0.023958
 H 0.160344 0.689626 0.918782   0.031844
 H 0.708796 0.00339 0.012947   0.038381
 H 0.257504 0.64386 0.128877   0.032384
 H 0.551136 0.025746 0.230059   0.036286
 H 0.109782 0.938336 0.455209   0.031423
 H 0.709304 0.519696 0.268972   0.023674
 H 0.661532 0.810342 0.580926   0.03266
 H 0.20878 0.49673 0.487122   0.038326
 C 0.160618 0.175658 0.671786   0.617735
 C 0.97269 0.480536 0.792649   0.60616
 C 0.283042 0.424648 0.946939   0.596995
 C 0.863544 0.04841 0.820064   0.613944
 C 0.899424 0.256608 0.034729   0.629815
 C 0.273418 0.069774 0.942232   0.621048
 C 0.660896 0.324122 0.828123   0.616711
 C 0.475474 0.019412 0.707691   0.608104
 C 0.782516 0.076488 0.55141   0.610631
 C 0.363482 0.45146 0.679799   0.614194
 C 0.398816 0.24335 0.465387   0.629931
 C 0.773368 0.430114 0.557762   0.621091
 C 0.839378 0.824334 0.328237   0.617267
 C 0.027288 0.519454 0.207365   0.606253
 C 0.716952 0.57532 0.053095   0.610111
 C 0.136454 0.95158 0.17996   0.613845
 C 0.100582 0.743392 0.965296   0.630091
 C 0.726572 0.93022 0.057794   0.621068
 C 0.339098 0.675872 0.171901   0.616331
 C 0.524522 0.98058 0.292335   0.608387
 C 0.21748 0.923498 0.44862   0.610722
 C 0.636518 0.548534 0.320228   0.614231
 C 0.601178 0.75664 0.534638   0.630231
 C 0.226626 0.569874 0.442261   0.621022
 O 0.189372 0.199558 0.753975   -0.620361
 O 0.048596 0.184854 0.63559   -0.560475
 O 0.979 0.369512 0.785986   -0.627829
 O 0.994872 0.540222 0.861928   -0.560812
 O 0.248698 0.34825 0.887217   -0.615947
 O 0.207396 0.482702 0.0   -0.559474
 O 0.912116 0.149882 0.80883   -0.628418
 O 0.889008 0.98033 0.882163   -0.555762
 O 0.972722 0.31406 0.979889   -0.628783
 O 0.889542 0.149238 0.038909   -0.568992
 O 0.152152 0.10369 0.936873   -0.615049
 O 0.371424 0.110758 0.902036   -0.561435
 O 0.689578 0.30031 0.745921   -0.619465
 O 0.54887 0.315032 0.864222   -0.560535
 O 0.47889 0.130586 0.713925   -0.628183
 O 0.499568 0.959904 0.63866   -0.562268
 O 0.748346 0.151284 0.612333   -0.6284
 O 0.706758 0.019754 0.500519   -0.555546
 O 0.412146 0.350098 0.691119   -0.628545
 O 0.389046 0.51964 0.617781   -0.555596
 O 0.472234 0.18586 0.52011   -0.629039
 O 0.389304 0.350734 0.461144   -0.56925
 O 0.65206 0.396234 0.563115   -0.615508
 O 0.871368 0.389042 0.597921   -0.561745
 O 0.810624 0.800432 0.246049   -0.6197
 O 0.9514 0.815136 0.364433   -0.561112
 O 0.020996 0.630476 0.214036   -0.6281
 O 0.005166 0.459774 0.138076   -0.559713
 O 0.751296 0.651734 0.112806   -0.627646
 O 0.792594 0.517258 0.003207   -0.556293
 O 0.087882 0.85011 0.191194   -0.628174
 O 0.110984 0.019662 0.117865   -0.556042
 O 0.027288 0.685938 0.020137   -0.628025
 O 0.110458 0.850762 0.961114   -0.569336
 O 0.84784 0.896308 0.063154   -0.615748
 O 0.628568 0.889234 0.097989   -0.561666
 O 0.310416 0.699682 0.254104   -0.61983
 O 0.451124 0.684958 0.135803   -0.560791
 O 0.521106 0.869406 0.2861   -0.628026
 O 0.500426 0.04009 0.361365   -0.562723
 O 0.25165 0.848704 0.387694   -0.628058
 O 0.293238 0.980236 0.499508   -0.556163
 O 0.587848 0.649894 0.308906   -0.62823
 O 0.61095 0.480354 0.382244   -0.556313
 O 0.527762 0.81413 0.479915   -0.628988
 O 0.61069 0.649258 0.538881   -0.569558
 O 0.347932 0.603756 0.436909   -0.615483
 O 0.128624 0.610946 0.402102   -0.561534
