#{'_ref': 'TBD', '_srcid': 'CAKYAQ_clean', 'submitters': [{'name': 'Dalar Nazarian Jeff Camp and David Sholl', 'email': 'dalar@gatech.edu jcamp6@gatech.edu'}], '_method': 'VASP DFT with PBE;DDEC'}
data_CdH8C8(NO3)2
_symmetry_space_group_name_H-M   'P 1'
_cell_length_a   9.19650015
_cell_length_b   12.70000000
_cell_length_c   13.49634701
_cell_angle_alpha   116.34789236
_cell_angle_beta   97.14049105
_cell_angle_gamma   101.02799727
_symmetry_Int_Tables_number   1
_chemical_formula_structural   CdH8C8(NO3)2
_chemical_formula_sum   'Cd3 H24 C24 N6 O18'
_cell_volume   1346.68725955
_cell_formula_units_Z   3
loop_
 _symmetry_equiv_pos_site_id
 _symmetry_equiv_pos_as_xyz
  1  'x, y, z'
loop_
  _atom_site_label
 _atom_site_fract_x
 _atom_site_fract_y
 _atom_site_fract_z
 _atom_site_charge
 Cd 0.391738 0.058312 0.10583   1.078423
 Cd 0.602204 0.939924 0.891537   1.279438
 Cd 0.99698 0.999051 0.998673   1.258405
 H 0.331866 0.447462 0.389931   0.093319
 H 0.4253 0.5026 0.30737   0.093573
 H 0.19244 0.386308 0.14419   0.157473
 H 0.099484 0.328988 0.224355   0.148025
 H 0.369728 0.836939 0.292455   0.099482
 H 0.299374 0.942433 0.401281   0.093345
 H 0.09767 0.73981 0.168899   0.13841
 H 0.040968 0.860034 0.271543   0.1488
 H 0.041564 0.67237 0.616662   0.084786
 H 0.04136 0.816903 0.624983   0.107537
 H 0.329406 0.887737 0.702441   0.153099
 H 0.319706 0.750703 0.709288   0.146467
 H 0.661286 0.550359 0.607352   0.110279
 H 0.56839 0.495238 0.690137   0.105611
 H 0.80144 0.611845 0.853071   0.179118
 H 0.894008 0.669054 0.772693   0.185771
 H 0.624212 0.160511 0.704217   0.097841
 H 0.696188 0.055745 0.596069   0.094471
 H 0.895348 0.258939 0.829114   0.137119
 H 0.953876 0.139506 0.727063   0.143655
 H 0.952268 0.326077 0.380654   0.093003
 H 0.952896 0.181633 0.372383   0.102399
 H 0.66481 0.11039 0.294961   0.145525
 H 0.674078 0.247373 0.288101   0.15596
 C 0.193894 0.604279 0.463111   0.617875
 C 0.26971 0.652476 0.314806   0.60708
 C 0.178888 0.799936 0.469217   0.602772
 C 0.314282 0.471885 0.322083   0.057565
 C 0.21227 0.362334 0.212633   -0.386295
 C 0.282168 0.256787 0.171941   0.75194
 C 0.26981 0.851087 0.327444   0.04766
 C 0.138616 0.835892 0.236462   -0.373042
 C 0.185496 0.911727 0.178392   0.760884
 C 0.110336 0.753877 0.618345   0.064824
 C 0.25536 0.816902 0.71417   -0.437959
 C 0.23267 0.880596 0.833732   0.802945
 C 0.799896 0.393908 0.534242   0.606324
 C 0.72429 0.345581 0.682528   0.601813
 C 0.815874 0.198518 0.528344   0.602986
 C 0.679238 0.526054 0.675254   0.037583
 C 0.781336 0.63573 0.784588   -0.304295
 C 0.711442 0.741285 0.82536   0.448885
 C 0.72473 0.147035 0.669864   0.051237
 C 0.855514 0.162868 0.761467   -0.376221
 C 0.80859 0.086702 0.819214   0.747232
 C 0.883718 0.244523 0.379017   0.063703
 C 0.738646 0.181308 0.283213   -0.443666
 C 0.761316 0.117665 0.163629   0.794034
 N 0.153328 0.714047 0.508246   -0.308934
 N 0.250526 0.577429 0.36564   -0.312599
 N 0.232768 0.762834 0.37007   -0.304295
 N 0.840794 0.284283 0.489141   -0.298182
 N 0.743228 0.420634 0.631689   -0.304262
 N 0.76163 0.23539 0.627337   -0.303064
 O 0.181904 0.537313 0.506506   -0.509389
 O 0.318644 0.624041 0.22882   -0.506326
 O 0.15595 0.900317 0.518804   -0.49897
 O 0.405008 0.262939 0.230811   -0.596693
 O 0.329924 0.95519 0.194456   -0.628669
 O 0.081354 0.924619 0.118117   -0.683716
 O 0.358032 0.93371 0.914181   -0.710966
 O 0.102108 0.88107 0.850687   -0.610549
 O 0.215816 0.160215 0.075096   -0.685815
 O 0.81168 0.460873 0.490846   -0.494855
 O 0.67526 0.373893 0.768467   -0.501557
 O 0.83952 0.09838 0.478983   -0.491807
 O 0.5884 0.766696 0.766696   -0.46728
 O 0.664164 0.04288 0.802805   -0.660142
 O 0.912702 0.073957 0.879627   -0.585817
 O 0.635962 0.064622 0.083176   -0.705967
 O 0.891854 0.117151 0.146655   -0.595469
 O 0.77807 0.922093 0.922093   -0.811874
