#{'_ref': 'TBD', '_srcid': 'CAKYAQ_clean', 'submitters': [{'name': 'Dalar Nazarian Jeff Camp and David Sholl', 'email': 'dalar@gatech.edu jcamp6@gatech.edu'}], '_method': 'VASP DFT with PBE;DDEC'}
data_ZnH20C28(NO2)2
_symmetry_space_group_name_H-M   'P 1'
_cell_length_a   8.59550002
_cell_length_b   13.14100059
_cell_length_c   14.99842816
_cell_angle_alpha   64.06503719
_cell_angle_beta   83.55330023
_cell_angle_gamma   75.73200147
_symmetry_Int_Tables_number   1
_chemical_formula_structural   ZnH20C28(NO2)2
_chemical_formula_sum   'Zn2 H40 C56 N4 O8'
_cell_volume   1476.49652227
_cell_formula_units_Z   2
loop_
 _symmetry_equiv_pos_site_id
 _symmetry_equiv_pos_as_xyz
  1  'x, y, z'
loop_
 _atom_site_type_symbol
 _atom_site_fract_x
 _atom_site_fract_y
 _atom_site_fract_z
 _atom_site_charge
 Zn 0.833892 0.093796 0.824122   0.850406
 Zn 0.339796 0.915377 0.176575   0.849183
 H 0.83586 0.761623 0.263141   0.091421
 H 0.093702 0.646146 0.353854   0.108656
 H 0.834712 0.442424 0.601638   0.118035
 H 0.579778 0.552096 0.510025   0.097228
 H 0.242046 0.508596 0.488404   0.103365
 H 0.062102 0.339195 0.660805   0.128781
 H 0.470812 0.381845 0.531993   0.135301
 H 0.725052 0.261889 0.619909   0.101534
 H 0.484724 0.105553 0.883187   0.085988
 H 0.219496 0.217782 0.805522   0.139439
 H 0.459844 0.253037 0.941464   0.092933
 H 0.550234 0.438121 0.876591   0.116433
 H 0.54709 0.41016 0.174632   0.107776
 H 0.456264 0.225984 0.237356   0.110404
 H 0.626844 0.582801 0.898268   0.093675
 H 0.609144 0.57453 0.107606   0.110055
 H 0.66081 0.74007 0.119871   0.136004
 H 0.743178 0.927332 0.042525   0.102414
 H 0.800622 0.920403 0.766724   0.088338
 H 0.716902 0.732875 0.831328   0.130963
 H 0.33171 0.027135 0.736974   0.090914
 H 0.590986 0.009498 0.646313   0.110832
 H 0.336066 0.042612 0.399322   0.118628
 H 0.07968 0.061534 0.490862   0.098163
 H 0.741646 0.996717 0.512263   0.107034
 H 0.564734 0.004563 0.34001   0.127891
 H 0.97124 0.911813 0.469121   0.135291
 H 0.226922 0.879304 0.381225   0.102087
 H 0.991038 0.986985 0.117543   0.084606
 H 0.724668 0.022026 0.195092   0.138601
 H 0.959578 0.194571 0.058592   0.093111
 H 0.053652 0.31356 0.123177   0.114872
 H 0.043192 0.586212 0.826215   0.107845
 H 0.949442 0.465746 0.763727   0.111069
 H 0.133452 0.479077 0.101154   0.093943
 H 0.101676 0.684182 0.894014   0.110266
 H 0.156202 0.861053 0.882061   0.135853
 H 0.243476 0.969322 0.959131   0.102337
 H 0.308554 0.68428 0.232596   0.090224
 H 0.221776 0.562583 0.168048   0.130543
 C 0.535338 0.725403 0.326134   0.631708
 C 0.691784 0.662083 0.38006   -0.101573
 C 0.837376 0.690809 0.336727   -0.06036
 C 0.981112 0.630248 0.387387   -0.148926
 C 0.984438 0.538026 0.482727   0.095138
 C 0.836878 0.511089 0.526923   -0.148733
 C 0.693754 0.572296 0.476135   -0.06241
 C 0.139466 0.470205 0.529795   -0.079337
 C 0.164254 0.377992 0.617275   -0.174693
 C 0.320106 0.312738 0.661766   0.19328
 C 0.467358 0.323153 0.610286   -0.21937
 C 0.610192 0.256424 0.658429   0.156044
 C 0.476478 0.16776 0.805368   0.130725
 C 0.328872 0.231242 0.761984   -0.214373
 C 0.401888 0.114399 0.135347   0.611182
 C 0.45224 0.227789 0.093473   -0.10496
 C 0.478862 0.288252 0.991816   -0.025932
 C 0.528746 0.392166 0.955886   -0.143808
 C 0.554106 0.438977 0.020219   0.085823
 C 0.526988 0.377275 0.122581   -0.142104
 C 0.47661 0.273844 0.158335   -0.065796
 C 0.606494 0.547787 0.978372   -0.064486
 C 0.630442 0.607775 0.027712   -0.16845
 C 0.681246 0.717187 0.982954   0.177895
 C 0.691748 0.775182 0.041265   -0.21806
 C 0.73808 0.880499 0.998635   0.144965
 C 0.767966 0.876224 0.844618   0.132306
 C 0.721258 0.771746 0.88167   -0.216708
 C 0.032232 0.052878 0.67446   0.635194
 C 0.18952 0.043085 0.620466   -0.101665
 C 0.3344 0.0291 0.66357   -0.058939
 C 0.47897 0.018657 0.612966   -0.156167
 C 0.48392 0.020713 0.517861   0.100291
 C 0.337066 0.037372 0.473869   -0.146478
 C 0.193092 0.048337 0.524598   -0.064461
 C 0.63977 0.003047 0.470905   -0.086771
 C 0.666146 0.994029 0.383548   -0.172692
 C 0.82278 0.972927 0.339119   0.19091
 C 0.969138 0.931535 0.390723   -0.219259
 C 0.112782 0.912712 0.342558   0.153223
 C 0.981616 0.971378 0.195431   0.131333
 C 0.833264 0.991697 0.238778   -0.211769
 C 0.896464 0.251625 0.865313   0.612514
 C 0.948378 0.322601 0.907122   -0.102977
 C 0.977904 0.280415 0.008414   -0.029379
 C 0.029732 0.347735 0.044205   -0.139477
 C 0.053908 0.459271 0.980103   0.084134
 C 0.023794 0.500991 0.878116   -0.138576
 C 0.971834 0.433867 0.842492   -0.068181
 C 0.108028 0.525691 0.02178   -0.06479
 C 0.128124 0.63605 0.973114   -0.170305
 C 0.181146 0.699999 0.017688   0.176952
 C 0.190084 0.81667 0.960016   -0.213449
 C 0.23905 0.878481 0.002514   0.141372
 C 0.273688 0.718795 0.155178   0.131029
 C 0.224936 0.652109 0.118215   -0.213182
 N 0.61653 0.179452 0.75501   -0.334598
 N 0.776478 0.931364 0.901569   -0.345655
 N 0.120874 0.932405 0.245851   -0.332907
 N 0.281074 0.831164 0.098831   -0.345167
 O 0.544424 0.814935 0.242101   -0.603062
 O 0.408928 0.691138 0.361472   -0.593261
 O 0.392764 0.068072 0.075778   -0.595279
 O 0.373338 0.065774 0.226869   -0.575683
 O 0.039754 0.059624 0.758106   -0.604714
 O 0.906518 0.053103 0.639458   -0.595247
 O 0.886886 0.145828 0.924707   -0.595741
 O 0.86721 0.294887 0.774025   -0.578553
