#{'_ref': 'TBD', '_srcid': 'CAKYAQ_clean', 'submitters': [{'name': 'Dalar Nazarian Jeff Camp and David Sholl', 'email': 'dalar@gatech.edu jcamp6@gatech.edu'}], '_method': 'VASP DFT with PBE;DDEC'}
data_ZnH6(C3N2)2
_symmetry_space_group_name_H-M   'P 1'
_cell_length_a   15.68900038
_cell_length_b   15.70700034
_cell_length_c   18.57900000
_cell_angle_alpha   90.18899944
_cell_angle_beta   90.12999933
_cell_angle_gamma   90.42099898
_symmetry_Int_Tables_number   1
_chemical_formula_structural   ZnH6(C3N2)2
_chemical_formula_sum   'Zn16 H96 C96 N64'
_cell_volume   4578.20918796
_cell_formula_units_Z   16
loop_
 _symmetry_equiv_pos_site_id
 _symmetry_equiv_pos_as_xyz
  1  'x, y, z'
loop_
 _atom_site_type_symbol
 _atom_site_fract_x
 _atom_site_fract_y
 _atom_site_fract_z
 _atom_site_charge
 Zn 0.141222 0.799795 0.402658   0.726912
 Zn 0.337055 0.492513 0.318826   0.730208
 Zn 0.859012 0.700499 0.902324   0.726926
 Zn 0.663049 0.007134 0.816163   0.730628
 Zn 0.643832 0.200165 0.09665   0.72638
 Zn 0.837234 0.510692 0.181883   0.729584
 Zn 0.355777 0.29654 0.596814   0.726554
 Zn 0.159545 0.989209 0.684263   0.728426
 Zn 0.858893 0.200376 0.597163   0.72643
 Zn 0.662855 0.507456 0.681169   0.729748
 Zn 0.140851 0.299947 0.097156   0.727065
 Zn 0.336565 0.992765 0.182041   0.729837
 Zn 0.356035 0.7992 0.902978   0.726101
 Zn 0.161054 0.489264 0.816012   0.729879
 Zn 0.644301 0.703281 0.403045   0.726685
 Zn 0.840417 0.010796 0.315737   0.728531
 H 0.288795 0.685728 0.340101   0.077671
 H 0.049821 0.609932 0.422238   0.110246
 H 0.141408 0.466558 0.383897   0.109324
 H 0.177239 0.954019 0.512501   0.092086
 H 0.076385 0.708684 0.550062   0.105526
 H 0.084905 0.797674 0.679407   0.099788
 H 0.990868 0.937938 0.415101   0.082411
 H 0.050706 0.767559 0.247318   0.115446
 H 0.919971 0.873999 0.202698   0.113959
 H 0.177272 0.926744 0.273739   0.082445
 H 0.440272 0.914101 0.319498   0.099277
 H 0.350506 0.823533 0.422941   0.112062
 H 0.711622 0.813782 0.838155   0.0781
 H 0.949552 0.890915 0.922902   0.109966
 H 0.858312 0.033659 0.882909   0.108938
 H 0.820902 0.546935 0.010276   0.092678
 H 0.923846 0.791026 0.051319   0.105814
 H 0.912646 0.701576 0.179774   0.098952
 H 0.009622 0.561922 0.915202   0.082465
 H 0.949721 0.73168 0.747702   0.114499
 H 0.080886 0.625551 0.703442   0.114147
 H 0.822052 0.573174 0.773096   0.082672
 H 0.559337 0.586674 0.818884   0.099473
 H 0.649944 0.677335 0.922647   0.11261
 H 0.790677 0.317367 0.158656   0.077366
 H 0.549777 0.387798 0.078495   0.110933
 H 0.639832 0.533082 0.11831   0.109656
 H 0.681562 0.045452 0.988271   0.091644
 H 0.577092 0.287203 0.947886   0.106156
 H 0.587182 0.196874 0.819446   0.099652
 H 0.490762 0.061797 0.084326   0.083015
 H 0.552893 0.234407 0.250794   0.115353
 H 0.417722 0.13138 0.294443   0.113472
 H 0.681185 0.074311 0.225104   0.083036
 H 0.943646 0.091064 0.178237   0.098781
 H 0.852538 0.180312 0.075182   0.112439
 H 0.20846 0.182268 0.660319   0.078186
 H 0.44714 0.107465 0.578821   0.110577
 H 0.355932 0.964004 0.620248   0.109438
 H 0.317629 0.451907 0.490518   0.091876
 H 0.421839 0.210644 0.446687   0.106924
 H 0.412922 0.303264 0.31982   0.099673
 H 0.508211 0.435257 0.582926   0.08404
 H 0.448327 0.265872 0.751115   0.114851
 H 0.582874 0.370917 0.793769   0.113755
 H 0.319701 0.424196 0.725294   0.083136
 H 0.056859 0.408046 0.678699   0.09886
 H 0.146859 0.317372 0.575726   0.112729
 H 0.711422 0.314262 0.660129   0.077592
 H 0.949937 0.390365 0.577253   0.110182
 H 0.858322 0.533618 0.615863   0.109499
 H 0.822873 0.046214 0.487468   0.091972
 H 0.923886 0.291426 0.449642   0.105526
 H 0.915113 0.20232 0.320366   0.099687
 H 0.009155 0.062133 0.584826   0.082467
 H 0.949047 0.232273 0.752716   0.115296
 H 0.079861 0.125924 0.797306   0.114497
 H 0.822154 0.072868 0.725213   0.082308
 H 0.559301 0.086522 0.67911   0.099646
 H 0.649572 0.177478 0.57617   0.112307
 H 0.28831 0.186249 0.160677   0.078163
 H 0.04972 0.109823 0.076806   0.10999
 H 0.140955 0.966776 0.116062   0.10899
 H 0.178149 0.454177 0.988402   0.092388
 H 0.076777 0.209182 0.948483   0.104889
 H 0.086711 0.298099 0.819727   0.098321
 H 0.989675 0.438056 0.083279   0.082411
 H 0.049459 0.26939 0.251596   0.114487
 H 0.917358 0.374879 0.294884   0.113914
 H 0.177716 0.426863 0.226799   0.082678
 H 0.440449 0.41354 0.181042   0.099498
 H 0.349892 0.323149 0.077082   0.112315
 H 0.208518 0.682894 0.83991   0.07779
 H 0.448592 0.610821 0.920791   0.110644
 H 0.357989 0.466214 0.880207   0.109256
 H 0.318235 0.953394 0.010577   0.092201
 H 0.422971 0.712036 0.05212   0.10652
 H 0.412676 0.803197 0.180164   0.100051
 H 0.509313 0.937922 0.914964   0.083018
 H 0.446722 0.764841 0.748958   0.115047
 H 0.58147 0.868048 0.704702   0.11329
 H 0.318748 0.925533 0.77482   0.082962
 H 0.056302 0.908957 0.821796   0.098589
 H 0.147398 0.819511 0.924729   0.112107
 H 0.79175 0.817682 0.339727   0.077884
 H 0.552817 0.892178 0.420908   0.110515
 H 0.643957 0.035764 0.379676   0.109414
 H 0.682419 0.547831 0.509438   0.091629
 H 0.578476 0.789266 0.553054   0.106181
 H 0.587077 0.696708 0.679972   0.099499
 H 0.491686 0.564697 0.417061   0.083947
 H 0.551421 0.734239 0.248952   0.114887
 H 0.416977 0.62908 0.206241   0.113637
 H 0.679015 0.575868 0.273925   0.082307
 H 0.942225 0.590693 0.319326   0.099217
 H 0.853324 0.681384 0.422927   0.112025
 C 0.236097 0.645594 0.35724   0.179963
 C 0.11317 0.604682 0.399477   -0.056031
 C 0.158554 0.533439 0.380336   -0.054124
 C 0.149542 0.899754 0.540183   0.167125
 C 0.097471 0.773309 0.561237   -0.05652
 C 0.101598 0.817322 0.625309   -0.045232
 C 0.989298 0.905921 0.363261   0.174983
 C 0.018834 0.81878 0.275552   -0.057544
 C 0.954285 0.87155 0.253395   -0.051377
 C 0.236778 0.911176 0.300321   0.176927
 C 0.372227 0.9035 0.325302   -0.047714
 C 0.327662 0.858594 0.37662   -0.058279
 C 0.764111 0.8542 0.855699   0.179656
 C 0.886501 0.895785 0.899275   -0.054971
 C 0.841256 0.966727 0.879333   -0.054406
 C 0.848741 0.600803 0.038815   0.165528
 C 0.901875 0.726599 0.061656   -0.05783
 C 0.896438 0.682368 0.125288   -0.043658
 C 0.011236 0.593789 0.863481   0.176228
 C 0.981669 0.680623 0.775928   -0.05661
 C 0.046452 0.627999 0.753963   -0.052697
 C 0.762738 0.588984 0.799741   0.176113
 C 0.627437 0.597117 0.824733   -0.047803
 C 0.67241 0.64205 0.876207   -0.058905
 C 0.737286 0.356311 0.142186   0.180055
 C 0.61332 0.394481 0.101028   -0.055062
 C 0.65795 0.466647 0.120927   -0.054172
 C 0.653222 0.098553 0.95991   0.166759
 C 0.599305 0.223122 0.93743   -0.057904
 C 0.60416 0.178401 0.873791   -0.044833
 C 0.489263 0.094836 0.135691   0.174702
 C 0.519966 0.183153 0.222716   -0.058761
 C 0.453106 0.132138 0.244352   -0.051426
 C 0.740375 0.090832 0.198283   0.175169
 C 0.875545 0.100627 0.172697   -0.046018
 C 0.830341 0.144836 0.121589   -0.058259
 C 0.261097 0.142367 0.643746   0.178329
 C 0.383923 0.101965 0.601925   -0.055537
 C 0.338697 0.030703 0.622586   -0.05452
 C 0.346038 0.399247 0.461436   0.166277
 C 0.399845 0.274951 0.437196   -0.059859
 C 0.395575 0.320797 0.374336   -0.04377
 C 0.510301 0.403354 0.634612   0.173281
 C 0.480724 0.316727 0.722508   -0.057771
 C 0.547259 0.368758 0.743669   -0.052885
 C 0.260265 0.407623 0.698562   0.174954
 C 0.124883 0.398148 0.673118   -0.045817
 C 0.169556 0.353209 0.622054   -0.059199
 C 0.764009 0.354457 0.64285   0.179377
 C 0.886697 0.39553 0.60024   -0.055749
 C 0.841287 0.466715 0.619489   -0.054108
 C 0.850596 0.100423 0.459723   0.167314
 C 0.902743 0.226804 0.438534   -0.056959
 C 0.898484 0.182735 0.374495   -0.044864
 C 0.010661 0.094094 0.636691   0.175426
 C 0.980979 0.181111 0.724454   -0.056807
 C 0.045575 0.128388 0.746596   -0.052056
 C 0.76277 0.088745 0.69857   0.177268
 C 0.627378 0.096963 0.673405   -0.048319
 C 0.672196 0.142051 0.622365   -0.057359
 C 0.235671 0.145982 0.143204   0.180108
 C 0.11292 0.104756 0.100106   -0.05511
 C 0.15817 0.033667 0.119657   -0.053529
 C 0.150549 0.399993 0.960129   0.166914
 C 0.098228 0.273722 0.937877   -0.057349
 C 0.103033 0.31771 0.874088   -0.04391
 C 0.987885 0.40639 0.135083   0.176268
 C 0.017404 0.320129 0.223046   -0.057892
 C 0.952124 0.372422 0.244524   -0.051302
 C 0.237044 0.41112 0.200149   0.176274
 C 0.372353 0.403088 0.175166   -0.047981
 C 0.327406 0.358282 0.123598   -0.058822
 C 0.26164 0.643602 0.856405   0.178975
 C 0.385156 0.604603 0.897951   -0.055592
 C 0.340245 0.532759 0.877665   -0.054638
 C 0.346624 0.900513 0.039197   0.165222
 C 0.400676 0.776149 0.062282   -0.057443
 C 0.395733 0.821267 0.125714   -0.045077
 C 0.510626 0.904782 0.863639   0.17488
 C 0.479679 0.816218 0.776846   -0.059009
 C 0.546318 0.867335 0.754908   -0.052167
 C 0.259559 0.909042 0.801654   0.175253
 C 0.124398 0.89933 0.827295   -0.045635
 C 0.169602 0.855036 0.87835   -0.057774
 C 0.739048 0.857522 0.356261   0.179157
 C 0.61609 0.897768 0.397924   -0.054974
 C 0.661274 0.969088 0.377344   -0.054909
 C 0.654057 0.600555 0.538469   0.167289
 C 0.600377 0.724938 0.562601   -0.057874
 C 0.604491 0.679123 0.625483   -0.044309
 C 0.489564 0.596639 0.365392   0.173485
 C 0.519059 0.683344 0.277537   -0.058257
 C 0.45259 0.631247 0.256341   -0.053019
 C 0.738713 0.592109 0.300379   0.176282
 C 0.874277 0.600878 0.325205   -0.04722
 C 0.830147 0.645823 0.376611   -0.058456
 N 0.236668 0.559824 0.353556   -0.368407
 N 0.162724 0.675844 0.384682   -0.360812
 N 0.134599 0.897615 0.611619   -0.364704
 N 0.127977 0.825908 0.507261   -0.365
 N 0.935838 0.926915 0.309314   -0.364548
 N 0.040772 0.840831 0.345472   -0.370824
 N 0.314086 0.937001 0.27701   -0.3643
 N 0.24154 0.863616 0.360525   -0.36965
 N 0.763474 0.93993 0.851672   -0.368143
 N 0.837229 0.824359 0.884109   -0.362411
 N 0.86276 0.602499 0.110443   -0.364364
 N 0.871528 0.674552 0.006838   -0.363512
 N 0.064954 0.572818 0.809774   -0.364856
 N 0.959581 0.658692 0.845635   -0.37217
 N 0.685232 0.563343 0.776332   -0.363458
 N 0.758421 0.636727 0.860091   -0.368863
 N 0.736722 0.441993 0.147038   -0.369516
 N 0.66405 0.32451 0.114637   -0.361998
 N 0.638391 0.099282 0.888358   -0.366271
 N 0.630539 0.172191 0.992063   -0.364819
 N 0.433897 0.076036 0.18886   -0.365173
 N 0.542651 0.15923 0.153559   -0.369778
 N 0.817977 0.066247 0.221198   -0.362223
 N 0.74445 0.138426 0.138103   -0.367557
 N 0.260663 0.05677 0.649118   -0.368077
 N 0.334307 0.172809 0.615464   -0.361385
 N 0.361457 0.399752 0.390024   -0.365843
 N 0.368299 0.324984 0.492448   -0.364065
 N 0.565741 0.423817 0.687641   -0.363754
 N 0.457483 0.338937 0.653115   -0.370471
 N 0.182921 0.432811 0.72151   -0.362659
 N 0.255601 0.35943 0.638457   -0.367484
 N 0.763325 0.440225 0.646507   -0.367827
 N 0.83732 0.324301 0.615212   -0.360877
 N 0.865435 0.102482 0.388271   -0.364614
 N 0.872275 0.174281 0.492573   -0.364906
 N 0.064114 0.073102 0.690644   -0.364706
 N 0.959099 0.159107 0.654511   -0.371275
 N 0.68533 0.06301 0.721612   -0.363191
 N 0.758255 0.136675 0.638592   -0.369227
 N 0.236182 0.060233 0.147003   -0.369091
 N 0.16242 0.176045 0.11521   -0.3618
 N 0.136196 0.397905 0.88852   -0.365455
 N 0.128466 0.326207 0.992452   -0.364593
 N 0.933639 0.427244 0.188452   -0.365949
 N 0.039855 0.341895 0.153381   -0.371709
 N 0.314541 0.436712 0.223626   -0.363329
 N 0.241389 0.363527 0.139712   -0.369109
 N 0.261746 0.55792 0.851302   -0.368744
 N 0.334901 0.674932 0.884354   -0.362232
 N 0.361427 0.900235 0.11073   -0.363969
 N 0.369416 0.826715 0.007428   -0.363803
 N 0.565696 0.923604 0.810239   -0.365276
 N 0.457272 0.840226 0.846047   -0.369161
 N 0.181962 0.933717 0.778792   -0.362421
 N 0.255491 0.861403 0.861806   -0.36797
 N 0.739393 0.943124 0.350915   -0.368183
 N 0.665821 0.826991 0.384441   -0.361839
 N 0.638525 0.600115 0.609864   -0.36597
 N 0.63194 0.674828 0.507403   -0.365119
 N 0.434166 0.576131 0.312343   -0.364055
 N 0.54231 0.661126 0.346925   -0.36997
 N 0.815782 0.566627 0.276981   -0.363404
 N 0.743961 0.640039 0.360628   -0.368343
