#{'_ref': 'TBD', '_srcid': 'CAKYAQ_clean', 'submitters': [{'name': 'Dalar Nazarian Jeff Camp and David Sholl', 'email': 'dalar@gatech.edu jcamp6@gatech.edu'}], '_method': 'VASP DFT with PBE;DDEC'}
data_LaB15H15(CO)6
_symmetry_space_group_name_H-M   'P 1'
_cell_length_a   15.13700030
_cell_length_b   17.67000015
_cell_length_c   15.41000000
_cell_angle_alpha   61.01600003
_cell_angle_beta   89.94399873
_cell_angle_gamma   89.95400052
_symmetry_Int_Tables_number   1
_chemical_formula_structural   LaB15H15(CO)6
_chemical_formula_sum   'La4 B60 H60 C24 O24'
_cell_volume   3605.49780479
_cell_formula_units_Z   4
loop_
 _symmetry_equiv_pos_site_id
 _symmetry_equiv_pos_as_xyz
  1  'x, y, z'
loop_
 _atom_site_label
 _atom_site_fract_x
 _atom_site_fract_y
 _atom_site_fract_z
 _atom_site_charge
 La 0.975782 0.538387 0.102979   2.115409
 La 0.475961 0.959868 0.39972   2.113523
 La 0.02041 0.459663 0.899582   2.136291
 La 0.520393 0.03869 0.603019   2.014422
 B 0.129106 0.811733 0.779652   0.041929
 B 0.136784 0.740195 0.728422   0.024296
 B 0.225092 0.667417 0.788466   0.036898
 B 0.272007 0.693113 0.877304   0.026321
 B 0.212715 0.782623 0.871474   0.04559
 B 0.227708 0.871498 0.752802   -0.083272
 B 0.180723 0.845647 0.663949   0.030982
 B 0.240136 0.756391 0.66965   0.016029
 B 0.323807 0.727293 0.761467   0.006965
 B 0.315762 0.798361 0.813123   0.027802
 B 0.928126 0.579861 0.43091   0.040051
 B 0.04402 0.589382 0.409123   0.006084
 B 0.086128 0.484477 0.44363   -0.019872
 B 0.0 0.409901 0.48716   0.034208
 B 0.89855 0.46867 0.47929   0.047607
 B 0.629342 0.68645 0.723089   0.020337
 B 0.636622 0.758018 0.774296   0.019435
 B 0.724838 0.830906 0.714232   0.02861
 B 0.772079 0.805251 0.625406   0.020021
 B 0.713087 0.715655 0.631262   0.017934
 B 0.728089 0.626815 0.74994   0.022545
 B 0.680774 0.652624 0.838778   0.021119
 B 0.739878 0.741971 0.833051   0.025136
 B 0.823692 0.77116 0.741227   0.020949
 B 0.816035 0.700063 0.689596   0.02142
 B 0.427897 0.918533 0.071682   0.016371
 B 0.543764 0.90847 0.093611   0.071987
 B 0.586265 0.01319 0.059252   0.033595
 B 0.496434 0.088163 0.015679   0.019888
 B 0.398751 0.029838 0.023356   0.017909
 B 0.867142 0.186485 0.223015   0.018121
 B 0.859624 0.258155 0.274083   0.018569
 B 0.771356 0.33098 0.214003   0.032877
 B 0.724314 0.305189 0.125295   0.017863
 B 0.783482 0.215561 0.131254   0.018507
 B 0.768477 0.126799 0.249996   0.020845
 B 0.815593 0.152748 0.338714   0.023175
 B 0.756306 0.242119 0.33289   0.02996
 B 0.672582 0.271189 0.241124   0.016555
 B 0.680475 0.199992 0.189625   0.023342
 B 0.06823 0.417781 0.571893   0.016436
 B 0.952334 0.408258 0.593679   0.0117
 B 0.910226 0.513166 0.559169   0.003429
 B 0.000346999999998 0.58774 0.515642   0.014128
 B 0.097803 0.528971 0.523513   0.029208
 B 0.366989 0.312021 0.279339   0.019258
 B 0.359682 0.240225 0.228444   0.017495
 B 0.271458 0.167402 0.288668   0.038061
 B 0.224235 0.193326 0.377283   0.020367
 B 0.283249 0.283018 0.371138   0.020172
 B 0.268252 0.371687 0.252322   0.023523
 B 0.315551 0.345607 0.163696   0.023148
 B 0.256428 0.256159 0.169714   0.026855
 B 0.172618 0.227176 0.261508   0.015601
 B 0.180297 0.298504 0.312827   0.022757
 B 0.568683 0.080043 0.930978   0.029508
 B 0.452829 0.090097 0.909021   0.018101
 B 0.41033 0.985378 0.94338   -0.007894
 B 0.50014 0.9104 0.986984   0.025353
 B 0.597834 0.0 0.979293   -0.131719
 H 0.058603 0.834018 0.792416   -0.010168
 H 0.071512 0.715489 0.707603   -0.009994
 H 0.219335 0.594061 0.807369   -0.024653
 H 0.296636 0.63665 0.954897   -0.011852
 H 0.198056 0.785689 0.945112   0.001936
 H 0.233931 0.0 0.733474   -0.025537
 H 0.155836 0.901955 0.586407   -0.008086
 H 0.254667 0.752902 0.596187   -0.013823
 H 0.394279 0.704693 0.748929   -0.014932
 H 0.381034 0.822538 0.834473   -0.01303
 H 0.879929 0.634861 0.375021   -0.021444
 H 0.072995 0.650552 0.338769   -0.01999
 H 0.14308 0.475894 0.396068   -0.020076
 H 0.0 0.352534 0.468064   -0.013795
 H 0.831066 0.450518 0.454964   -0.013825
 H 0.558959 0.664039 0.710371   -0.027345
 H 0.571215 0.782627 0.795147   -0.033083
 H 0.718885 0.904252 0.695334   -0.036848
 H 0.796715 0.861734 0.547804   -0.020069
 H 0.69864 0.712546 0.557638   -0.008135
 H 0.73454 0.553473 0.769283   -0.017904
 H 0.655911 0.596277 0.916335   -0.021921
 H 0.75422 0.74547 0.906513   -0.016914
 H 0.894058 0.793846 0.753743   -0.027288
 H 0.881448 0.67597 0.668234   -0.026817
 H 0.379456 0.863728 0.127461   -0.032029
 H 0.57247 0.847137 0.163961   -0.02792
 H 0.643208 0.021481 0.106912   -0.016076
 H 0.494346 0.145497 0.034846   -0.035177
 H 0.331302 0.048266 0.047612   -0.032604
 H 0.937601 0.164103 0.210274   -0.026352
 H 0.924952 0.282841 0.294823   -0.020166
 H 0.777202 0.404361 0.194981   -0.036711
 H 0.699716 0.361619 0.047665   -0.026253
 H 0.798075 0.212388 0.057668   -0.011268
 H 0.762156 0.053413 0.269438   -0.024713
 H 0.840456 0.096469 0.416288   -0.028719
 H 0.741836 0.245704 0.406305   -0.016576
 H 0.602152 0.293879 0.25364   -0.023254
 H 0.615152 0.175835 0.168345   -0.025474
 H 0.116431 0.362783 0.627779   -0.024061
 H 0.923361 0.347091 0.664035   -0.007525
 H 0.853278 0.521752 0.606731   -0.015758
 H 0.002611 0.645108 0.534736   -0.023096
 H 0.165289 0.547127 0.547833   -0.031697
 H 0.437377 0.334481 0.291975   -0.023683
 H 0.42509 0.215513 0.207725   -0.019825
 H 0.277391 0.093994 0.307803   -0.049117
 H 0.199576 0.136973 0.45496   -0.023167
 H 0.297695 0.286325 0.444645   -0.007413
 H 0.26182 0.445087 0.232752   -0.028782
 H 0.340442 0.401822 0.086065   -0.031774
 H 0.242094 0.252458 0.096372   -0.020295
 H 0.102249 0.204435 0.249079   -0.025461
 H 0.114886 0.322701 0.334063   -0.027562
 H 0.617112 0.134852 0.875191   -0.018194
 H 0.42411 0.151428 0.838671   -0.019405
 H 0.353366 0.977088 0.895735   -0.024142
 H 0.502209 0.853057 0.967839   -0.046519
 H 0.665273 0.0 0.955012   -0.013589
 C 0.161726 0.706489 0.850122   -0.085295
 C 0.291075 0.832488 0.690966   0.00816
 C 0.097987 0.645689 0.929342   0.769898
 C 0.356116 0.89558 0.614492   0.506777
 C 0.0 0.51462 0.395095   -0.040243
 C 0.0 0.529744 0.290358   0.584312
 C 0.661768 0.791749 0.652589   -0.081028
 C 0.791137 0.665946 0.81175   -0.093349
 C 0.598056 0.852482 0.573321   0.765514
 C 0.856195 0.602983 0.888226   0.804937
 C 0.482312 0.983454 0.10767   -0.066466
 C 0.467571 0.968282 0.212466   0.677998
 C 0.834589 0.291736 0.152435   -0.082763
 C 0.705241 0.165999 0.311739   -0.093482
 C 0.898278 0.352411 0.073082   0.77124
 C 0.640152 0.103069 0.388262   0.801894
 C 0.014041 0.483015 0.607709   -0.045047
 C 0.028701 0.467898 0.712449   0.671408
 C 0.33455 0.206758 0.350093   -0.083702
 C 0.205182 0.332358 0.190728   -0.097272
 C 0.398258 0.146059 0.429397   0.761106
 C 0.14013 0.395251 0.11416   0.812521
 C 0.514306 0.015105 0.89498   -0.034574
 C 0.529363 0.03018 0.790265   0.865362
 O 0.07754 0.660355 0.999038   -0.615812
 O 0.066836 0.581203 0.922617   -0.80862
 O 0.392154 0.0 0.635689   -0.725501
 O 0.370206 0.889943 0.53669   -0.442848
 O 0.926011 0.472849 0.277826   -0.734641
 O 0.0 0.597616 0.217581   -0.488757
 O 0.577648 0.837629 0.503799   -0.613709
 O 0.566907 0.917152 0.579783   -0.824393
 O 0.892379 0.549159 0.867049   -0.703643
 O 0.870143 0.608704 0.965973   -0.695214
 O 0.425965 0.025197 0.225106   -0.649329
 O 0.499423 0.900382 0.285184   -0.642267
 O 0.91868 0.337541 0.003538   -0.613339
 O 0.92942 0.417065 0.079486   -0.808871
 O 0.603991 0.049268 0.367101   -0.705556
 O 0.626139 0.10878 0.466031   -0.687985
 O 0.070382 0.524764 0.724968   -0.661095
 O 0.996724 0.400115 0.785224   -0.629318
 O 0.418638 0.160896 0.498939   -0.550937
 O 0.429443 0.081421 0.422903   -0.82412
 O 0.103961 0.449201 0.135152   -0.713131
 O 0.12614 0.389365 0.03653   -0.702998
 O 0.569958 0.0 0.777945   -0.559432
 O 0.498807 0.098683 0.717264   -0.770255
