#{'_ref': 'TBD', '_srcid': 'CAKYAQ_clean', 'submitters': [{'name': 'Dalar Nazarian Jeff Camp and David Sholl', 'email': 'dalar@gatech.edu jcamp6@gatech.edu'}], '_method': 'VASP DFT with PBE;DDEC'}
data_YC2O5
_symmetry_space_group_name_H-M   'P 1'
_cell_length_a   6.47800000
_cell_length_b   8.97355102
_cell_length_c   9.42150000
_cell_angle_alpha   89.99927850
_cell_angle_beta   89.99900055
_cell_angle_gamma   69.15895531
_symmetry_Int_Tables_number   1
_chemical_formula_structural   YC2O5
_chemical_formula_sum   'Y4 C8 O20'
_cell_volume   511.844046795
_cell_formula_units_Z   4
loop_
 _symmetry_equiv_pos_site_id
 _symmetry_equiv_pos_as_xyz
  1  'x, y, z'
loop_
  _atom_site_label
 _atom_site_fract_x
 _atom_site_fract_y
 _atom_site_fract_z
 _atom_site_charge
 Y 0.321648 0.353854 0.7501   1.996546
 Y 0.677726 0.645678 0.750024   1.995569
 Y 0.67773 0.645678 0.249994   1.995572
 Y 0.321652 0.353854 0.24992   1.996584
 C 0.614234 0.000427999999999 0.726954   0.551793
 C 0.469434 0.591402 0.50001   1.021581
 C 0.384002 0.998986 0.226874   0.549628
 C 0.530796 0.40831 1.79999999972e-05   1.023598
 C 0.383974 0.999012 0.773152   0.549697
 C 0.939854 0.591584 0.999998   1.021926
 C 0.61428 0.000376000000003 0.273058   0.552069
 C 0.059616 0.407926 0.500012   1.022219
 O 0.629556 0.136032 0.71012   -0.58755
 O 0.765614 0.865808 0.710294   -0.587042
 O 0.427788 0.541326 0.621764   -0.803578
 O 0.571744 0.691978 0.50001   -0.787398
 O 0.427798 0.541324 0.378256   -0.803504
 O 0.368824 0.863292 0.21005   -0.586906
 O 0.23275 0.133672 0.21021   -0.586545
 O 0.57275 0.457774 0.121728   -0.803539
 O 0.428134 0.307902 1.99999999992e-05   -0.789576
 O 0.57275 0.45777 0.878288   -0.803542
 O 0.232744 0.13367 0.789812   -0.586372
 O 0.368818 0.863292 0.78997   -0.58704
 O 0.030746 0.541736 0.878272   -0.803518
 O 0.738384 0.692114 0.0   -0.787398
 O 0.030748 0.541732 0.121746   -0.803624
 O 0.765618 0.865808 0.289724   -0.586774
 O 0.62956 0.136032 0.289898   -0.587998
 O 0.968706 0.457758 0.378248   -0.803146
 O 0.261088 0.307402 0.50001   -0.7886
 O 0.968704 0.457754 0.621776   -0.803135
