#{'_ref': 'TBD', '_srcid': 'CAKYAQ_clean', 'submitters': [{'name': 'Dalar Nazarian Jeff Camp and David Sholl', 'email': 'dalar@gatech.edu jcamp6@gatech.edu'}], '_method': 'VASP DFT with PBE;DDEC'}
data_Cd3(C4N3)2
_symmetry_space_group_name_H-M   'P 1'
_cell_length_a   9.12350000
_cell_length_b   12.23300027
_cell_length_c   19.65900000
_cell_angle_alpha   90.01199966
_cell_angle_beta   90.00099852
_cell_angle_gamma   90.00100210
_symmetry_Int_Tables_number   1
_chemical_formula_structural   Cd3(C4N3)2
_chemical_formula_sum   'Cd12 C32 N24'
_cell_volume   2194.09725855
_cell_formula_units_Z   4
loop_
 _symmetry_equiv_pos_site_id
 _symmetry_equiv_pos_as_xyz
  1  'x, y, z'
loop_
 _atom_site_type_symbol
 _atom_site_fract_x
 _atom_site_fract_y
 _atom_site_fract_z
 _atom_site_charge
 Cd 0.749786 0.13006 0.871895   1.212344
 Cd 0.249792 0.630015 0.628157   0.949605
 Cd 0.24981 0.869897 0.128182   0.994232
 Cd 0.749786 0.36995 0.371921   1.00308
 Cd 0.24975 0.193035 0.715291   0.629094
 Cd 0.24982 0.211122 0.027679   0.721225
 Cd 0.749782 0.69301 0.784759   0.781043
 Cd 0.7498 0.711254 0.472437   0.730644
 Cd 0.749794 0.806927 0.284789   0.656698
 Cd 0.749802 0.78883 0.972402   0.779586
 Cd 0.249742 0.306948 0.215321   0.661235
 Cd 0.24981 0.28872 0.527643   0.643426
 C 0.042534 0.163845 0.981367   -0.091665
 C 0.04155 0.145596 0.759481   -0.119254
 C 0.957082 0.663908 0.518709   -0.091502
 C 0.957956 0.645551 0.740542   -0.126351
 C 0.542524 0.836114 0.018702   -0.098958
 C 0.541608 0.85437 0.240584   -0.084532
 C 0.457104 0.336057 0.481381   -0.05643
 C 0.457906 0.354405 0.259551   -0.08967
 C 0.957098 0.836118 0.018699   -0.099011
 C 0.957974 0.854352 0.240572   -0.084467
 C 0.042538 0.336049 0.481355   -0.054652
 C 0.041542 0.354414 0.259506   -0.090267
 C 0.45711 0.163828 0.981391   -0.091729
 C 0.457912 0.145593 0.75952   -0.118493
 C 0.542518 0.663925 0.518713   -0.091728
 C 0.541586 0.645554 0.740559   -0.126516
 C 0.749826 0.426397 0.881102   0.34815
 C 0.749794 0.0 0.834003   -0.256101
 C 0.249824 0.0 0.618972   0.193311
 C 0.249782 0.356016 0.66604   -0.069267
 C 0.249852 0.57356 0.118972   0.356448
 C 0.249778 0.143915 0.166078   -0.054841
 C 0.74984 0.073605 0.381101   0.35425
 C 0.749792 0.643949 0.334045   -0.063118
 C 0.24984 0.46604 0.101542   -0.032794
 C 0.24981 0.129842 0.581431   -0.397119
 C 0.74983 0.966109 0.39856   -0.026098
 C 0.74981 0.629914 0.918608   -0.432601
 C 0.749816 0.533914 0.898538   0.026855
 C 0.74982 0.870134 0.41865   -0.372982
 C 0.249816 0.033866 0.60152   0.170116
 C 0.24983 0.37004 0.081473   -0.370419
 N 0.934392 0.144962 0.951766   -0.336749
 N 0.932666 0.130317 0.789282   -0.276017
 N 0.065236 0.64496 0.548277   -0.304969
 N 0.066834 0.630289 0.710731   -0.244924
 N 0.434382 0.855003 0.048298   -0.29431
 N 0.432728 0.869648 0.210778   -0.307217
 N 0.565262 0.355001 0.451815   -0.331787
 N 0.566784 0.36967 0.289364   -0.304063
 N 0.06525 0.855002 0.048292   -0.294261
 N 0.066848 0.869608 0.21076   -0.307417
 N 0.934396 0.354996 0.451778   -0.33236
 N 0.932654 0.3697 0.289305   -0.303452
 N 0.56526 0.144945 0.9518   -0.336582
 N 0.566786 0.130332 0.789333   -0.276688
 N 0.434372 0.644975 0.548286   -0.304752
 N 0.432698 0.630276 0.710756   -0.245337
 N 0.749836 0.333286 0.866791   -0.350812
 N 0.749794 0.0 0.868933   -0.35633
 N 0.249842 0.833261 0.633295   -0.384766
 N 0.24979 0.433892 0.631113   -0.325092
 N 0.249866 0.666674 0.133274   -0.371982
 N 0.24979 0.066021 0.131147   -0.335769
 N 0.749842 0.166709 0.36677   -0.36686
 N 0.749786 0.56607 0.368969   -0.32828
